units(length='cm', time='s', quantity='mol', act_energy='cal/mol')

ideal_gas(name='gas',
          elements="N O H C",
          species="""N2           O            H2           H
                     OH           H2O          H2O2         O2
                     HO2          CH2O         CO2          CH3
                     CO           C2H6         CH4          C2H4
                     C2H2         C3H6         C4H81        C5H10
                     C6H12        C7H14        C8H16        C9H18
                     C10H20       C12H25O2     NXC12H26     OC12H23OOH
                     CH2          HCO          CH2D         CH3O
                     C2H3         CH2CHO       C2H5         AXC3H5
                     C2H3CHO      NXC3H7       C4H7         PXC4H9
                     PXC5H11      PXC7H15      PXC12H25     S3XC12H25
                     SXC12H25     C12OOH       O2C12H24OOH""",
          reactions='all',
          transport='Mix',
          initial_state=state(temperature=300.0, pressure=OneAtm))

#-------------------------------------------------------------------------------
# Species data
#-------------------------------------------------------------------------------

species(name='N2',
        atoms='N:2',
        thermo=(NASA([300.00, 1000.00],
                     [ 3.29867700E+00,  1.40824040E-03, -3.96322200E-06,
                       5.64151500E-09, -2.44485400E-12, -1.02089990E+03,
                       3.95037200E+00]),
                NASA([1000.00, 5000.00],
                     [ 2.92664000E+00,  1.48797680E-03, -5.68476000E-07,
                       1.00970380E-10, -6.75335100E-15, -9.22797700E+02,
                       5.98052800E+00])),
        transport=gas_transport(geom='linear',
                                diam=3.621,
                                well_depth=97.53),
        note='000000')

species(name='O',
        atoms='O:1',
        thermo=(NASA([300.00, 1000.00],
                     [ 3.16826710E+00, -3.27931884E-03,  6.64306396E-06,
                      -6.12806624E-09,  2.11265971E-12,  2.91222592E+04,
                       2.05193346E+00]),
                NASA([1000.00, 5000.00],
                     [ 2.56942078E+00, -8.59741137E-05,  4.19484589E-08,
                      -1.00177799E-11,  1.22833691E-15,  2.92175791E+04,
                       4.78433864E+00])),
        transport=gas_transport(geom='atom',
                                diam=2.75,
                                well_depth=80.0),
        note='000000')

species(name='H2',
        atoms='H:2',
        thermo=(NASA([300.00, 1000.00],
                     [ 2.34433112E+00,  7.98052075E-03, -1.94781510E-05,
                       2.01572094E-08, -7.37611761E-12, -9.17935173E+02,
                       6.83010238E-01]),
                NASA([1000.00, 5000.00],
                     [ 3.33727920E+00, -4.94024731E-05,  4.99456778E-07,
                      -1.79566394E-10,  2.00255376E-14, -9.50158922E+02,
                      -3.20502331E+00])),
        transport=gas_transport(geom='linear',
                                diam=2.92,
                                well_depth=38.0),
        note='000000')

species(name='H',
        atoms='H:1',
        thermo=(NASA([300.00, 1000.00],
                     [ 2.50000000E+00,  7.05332819E-13, -1.99591964E-15,
                       2.30081632E-18, -9.27732332E-22,  2.54736599E+04,
                      -4.46682853E-01]),
                NASA([1000.00, 5000.00],
                     [ 2.50000001E+00, -2.30842973E-11,  1.61561948E-14,
                      -4.73515235E-18,  4.98197357E-22,  2.54736599E+04,
                      -4.46682914E-01])),
        transport=gas_transport(geom='atom',
                                diam=2.05,
                                well_depth=145.0),
        note='000000')

species(name='OH',
        atoms='O:1 H:1',
        thermo=(NASA([300.00, 1000.00],
                     [ 4.12530561E+00, -3.22544939E-03,  6.52764691E-06,
                      -5.79853643E-09,  2.06237379E-12,  3.38153812E+03,
                      -6.90432960E-01]),
                NASA([1000.00, 5000.00],
                     [ 2.86472886E+00,  1.05650448E-03, -2.59082758E-07,
                       3.05218674E-11, -1.33195876E-15,  3.71885774E+03,
                       5.70164073E+00])),
        transport=gas_transport(geom='linear',
                                diam=2.75,
                                well_depth=80.0),
        note='000000')

species(name='H2O',
        atoms='O:1 H:2',
        thermo=(NASA([300.00, 1000.00],
                     [ 4.19864056E+00, -2.03643410E-03,  6.52040211E-06,
                      -5.48797062E-09,  1.77197817E-12, -3.02937267E+04,
                      -8.49032208E-01]),
                NASA([1000.00, 5000.00],
                     [ 3.03399249E+00,  2.17691804E-03, -1.64072518E-07,
                      -9.70419870E-11,  1.68200992E-14, -3.00042971E+04,
                       4.96677010E+00])),
        transport=gas_transport(geom='nonlinear',
                                diam=2.605,
                                well_depth=572.4,
                                dipole=1.844,
                                rot_relax=4.0),
        note='000000')

species(name='H2O2',
        atoms='O:2 H:2',
        thermo=(NASA([300.00, 1000.00],
                     [ 4.27611269E+00, -5.42822417E-04,  1.67335701E-05,
                      -2.15770813E-08,  8.62454363E-12, -1.77025821E+04,
                       3.43505074E+00]),
                NASA([1000.00, 5000.00],
                     [ 4.16500285E+00,  4.90831694E-03, -1.90139225E-06,
                       3.71185986E-10, -2.87908305E-14, -1.78617877E+04,
                       2.91615662E+00])),
        transport=gas_transport(geom='nonlinear',
                                diam=3.458,
                                well_depth=107.4,
                                rot_relax=3.8),
        note='000000')

species(name='O2',
        atoms='O:2',
        thermo=(NASA([300.00, 1000.00],
                     [ 3.78245636E+00, -2.99673416E-03,  9.84730201E-06,
                      -9.68129509E-09,  3.24372837E-12, -1.06394356E+03,
                       3.65767573E+00]),
                NASA([1000.00, 5000.00],
                     [ 3.28253784E+00,  1.48308754E-03, -7.57966669E-07,
                       2.09470555E-10, -2.16717794E-14, -1.08845772E+03,
                       5.45323129E+00])),
        transport=gas_transport(geom='linear',
                                diam=3.458,
                                well_depth=107.4,
                                polar=1.6,
                                rot_relax=3.8),
        note='000000')

species(name='HO2',
        atoms='O:2 H:1',
        thermo=(NASA([300.00, 1000.00],
                     [ 4.30179801E+00, -4.74912051E-03,  2.11582891E-05,
                      -2.42763894E-08,  9.29225124E-12,  2.94808040E+02,
                       3.71666245E+00]),
                NASA([1000.00, 5000.00],
                     [ 4.01721090E+00,  2.23982013E-03, -6.33658150E-07,
                       1.14246370E-10, -1.07908535E-14,  1.11856713E+02,
                       3.78510215E+00])),
        transport=gas_transport(geom='nonlinear',
                                diam=3.458,
                                well_depth=107.4,
                                rot_relax=1.0),
        note='000000')

species(name='CH2O',
        atoms='O:1 H:2 C:1',
        thermo=(NASA([300.00, 1000.00],
                     [ 4.79372315E+00, -9.90833369E-03,  3.73220008E-05,
                      -3.79285261E-08,  1.31772652E-11, -1.43089567E+04,
                       6.02812900E-01]),
                NASA([1000.00, 5000.00],
                     [ 1.76069008E+00,  9.20000082E-03, -4.42258813E-06,
                       1.00641212E-09, -8.83855640E-14, -1.39958323E+04,
                       1.36563230E+01])),
        transport=gas_transport(geom='nonlinear',
                                diam=3.59,
                                well_depth=498.0,
                                rot_relax=2.0),
        note='000000')

species(name='CO2',
        atoms='O:2 C:1',
        thermo=(NASA([300.00, 1000.00],
                     [ 2.35677352E+00,  8.98459677E-03, -7.12356269E-06,
                       2.45919022E-09, -1.43699548E-13, -4.83719697E+04,
                       9.90105222E+00]),
                NASA([1000.00, 5000.00],
                     [ 3.85746029E+00,  4.41437026E-03, -2.21481404E-06,
                       5.23490188E-10, -4.72084164E-14, -4.87591660E+04,
                       2.27163806E+00])),
        transport=gas_transport(geom='linear',
                                diam=3.763,
                                well_depth=244.0,
                                polar=2.65,
                                rot_relax=2.1),
        note='000000')

species(name='CH3',
        atoms='H:3 C:1',
        thermo=(NASA([300.00, 1000.00],
                     [ 3.67359040E+00,  2.01095175E-03,  5.73021856E-06,
                      -6.87117425E-09,  2.54385734E-12,  1.64449988E+04,
                       1.60456433E+00]),
                NASA([1000.00, 5000.00],
                     [ 2.28571772E+00,  7.23990037E-03, -2.98714348E-06,
                       5.95684644E-10, -4.67154394E-14,  1.67755843E+04,
                       8.48007179E+00])),
        transport=gas_transport(geom='linear',
                                diam=3.8,
                                well_depth=144.0),
        note='000000')

species(name='CO',
        atoms='O:1 C:1',
        thermo=(NASA([300.00, 1000.00],
                     [ 3.57953347E+00, -6.10353680E-04,  1.01681433E-06,
                       9.07005884E-10, -9.04424499E-13, -1.43440860E+04,
                       3.50840928E+00]),
                NASA([1000.00, 5000.00],
                     [ 2.71518561E+00,  2.06252743E-03, -9.98825771E-07,
                       2.30053008E-10, -2.03647716E-14, -1.41518724E+04,
                       7.81868772E+00])),
        transport=gas_transport(geom='linear',
                                diam=3.65,
                                well_depth=98.1,
                                polar=1.95,
                                rot_relax=1.8),
        note='000000')

species(name='C2H6',
        atoms='H:6 C:2',
        thermo=(NASA([300.00, 1000.00],
                     [ 4.29142492E+00, -5.50154270E-03,  5.99438288E-05,
                      -7.08466285E-08,  2.68685771E-11, -1.15222055E+04,
                       2.66682316E+00]),
                NASA([1000.00, 5000.00],
                     [ 1.07188150E+00,  2.16852677E-02, -1.00256067E-05,
                       2.21412001E-09, -1.90002890E-13, -1.14263932E+04,
                       1.51156107E+01])),
        transport=gas_transport(geom='nonlinear',
                                diam=4.302,
                                well_depth=252.3,
                                rot_relax=1.5),
        note='000000')

species(name='CH4',
        atoms='H:4 C:1',
        thermo=(NASA([300.00, 1000.00],
                     [ 5.14987613E+00, -1.36709788E-02,  4.91800599E-05,
                      -4.84743026E-08,  1.66693956E-11, -1.02466476E+04,
                      -4.64130376E+00]),
                NASA([1000.00, 5000.00],
                     [ 7.48514950E-02,  1.33909467E-02, -5.73285809E-06,
                       1.22292535E-09, -1.01815230E-13, -9.46834459E+03,
                       1.84373180E+01])),
        transport=gas_transport(geom='nonlinear',
                                diam=3.746,
                                well_depth=141.4,
                                polar=2.6,
                                rot_relax=13.0),
        note='000000')

species(name='C2H4',
        atoms='H:4 C:2',
        thermo=(NASA([300.00, 1000.00],
                     [ 3.95920148E+00, -7.57052247E-03,  5.70990292E-05,
                      -6.91588753E-08,  2.69884373E-11,  5.08977593E+03,
                       4.09733096E+00]),
                NASA([1000.00, 5000.00],
                     [ 2.03611116E+00,  1.46454151E-02, -6.71077915E-06,
                       1.47222923E-09, -1.25706061E-13,  4.93988614E+03,
                       1.03053693E+01])),
        transport=gas_transport(geom='nonlinear',
                                diam=3.971,
                                well_depth=280.8,
                                rot_relax=1.5),
        note='000000')

species(name='C2H2',
        atoms='H:2 C:2',
        thermo=(NASA([300.00, 1000.00],
                     [ 8.08681094E-01,  2.33615629E-02, -3.55171815E-05,
                       2.80152437E-08, -8.50072974E-12,  2.64289807E+04,
                       1.39397051E+01]),
                NASA([1000.00, 5000.00],
                     [ 4.14756964E+00,  5.96166664E-03, -2.37294852E-06,
                       4.67412171E-10, -3.61235213E-14,  2.59359992E+04,
                      -1.23028121E+00])),
        transport=gas_transport(geom='linear',
                                diam=4.1,
                                well_depth=209.0),
        note='000000')

species(name='C3H6',
        atoms='H:6 C:3',
        thermo=(NASA([300.00, 1000.00],
                     [ 1.49330700E+00,  2.09251800E-02,  4.48679400E-06,
                      -1.66891200E-08,  7.15814600E-12,  1.07482600E+03,
                       1.61453400E+01]),
                NASA([1000.00, 5000.00],
                     [ 6.73225700E+00,  1.49083400E-02, -4.94989900E-06,
                       7.21202200E-10, -3.76620400E-14, -9.23570300E+02,
                      -1.33133500E+01])),
        transport=gas_transport(geom='nonlinear',
                                diam=4.982,
                                well_depth=266.8),
        note='000000')

species(name='C4H81',
        atoms='H:8 C:4',
        thermo=(NASA([300.00, 1000.00],
                     [ 1.18113800E+00,  3.08533800E-02,  5.08652470E-06,
                      -2.46548880E-08,  1.11101930E-11, -1.79040040E+03,
                       2.10624690E+01]),
                NASA([1000.00, 5000.00],
                     [ 2.05358410E+00,  3.43505070E-02, -1.58831970E-05,
                       3.30896620E-09, -2.53610450E-13, -2.13972310E+03,
                       1.55432010E+01])),
        transport=gas_transport(geom='nonlinear',
                                diam=5.176,
                                well_depth=357.0),
        note='000000')

species(name='C5H10',
        atoms='H:10 C:5',
        thermo=(NASA([300.00, 1000.00],
                     [-1.06223481E+00,  5.74218294E-02, -3.74486890E-05,
                       1.27364989E-08, -1.79609789E-12, -4.46546666E+03,
                       3.22739790E+01]),
                NASA([1000.00, 5000.00],
                     [ 3.98580522E+00,  4.12429986E-02, -1.84390497E-05,
                       3.06155241E-09,  0.00000000E+00, -5.70112071E+03,
                       6.85332264E+00])),
        transport=gas_transport(geom='nonlinear',
                                diam=5.342,
                                well_depth=448.508),
        note='000000')

species(name='C6H12',
        atoms='H:12 C:6',
        thermo=(NASA([300.00, 1000.00],
                     [-1.35275205E+00,  6.98655426E-02, -4.59408022E-05,
                       1.56967343E-08, -2.21296175E-12, -7.34368617E+03,
                       3.53120691E+01]),
                NASA([1000.00, 5000.00],
                     [ 4.97075871E+00,  4.96637321E-02, -2.22947517E-05,
                       3.71602180E-09,  0.00000000E+00, -8.89572273E+03,
                       3.44991991E+00])),
        transport=gas_transport(geom='nonlinear',
                                diam=5.628,
                                well_depth=504.629),
        note='000000')

species(name='C7H14',
        atoms='H:14 C:7',
        thermo=(NASA([300.00, 1000.00],
                     [-1.67720549E+00,  8.24611601E-02, -5.46504108E-05,
                       1.87862303E-08, -2.65737983E-12, -1.02168601E+04,
                       3.85068032E+01]),
                NASA([1000.00, 5000.00],
                     [ 5.97612676E+00,  5.80490524E-02, -2.61288124E-05,
                       4.36602746E-09,  0.00000000E+00, -1.20977632E+04,
                      -6.68452831E-02])),
        transport=gas_transport(geom='nonlinear',
                                diam=5.876,
                                well_depth=557.947),
        note='000000')

species(name='C8H16',
        atoms='H:16 C:8',
        thermo=(NASA([300.00, 1000.00],
                     [-1.89226915E+00,  9.46066357E-02, -6.27385521E-05,
                       2.15158309E-08, -3.02718683E-12, -1.31074559E+04,
                       4.11878981E+01]),
                NASA([1000.00, 5000.00],
                     [ 6.92039805E+00,  6.65524251E-02, -3.00409456E-05,
                       5.03258102E-09,  0.00000000E+00, -1.52768448E+04,
                      -3.24482298E+00])),
        transport=gas_transport(geom='nonlinear',
                                diam=6.1,
                                well_depth=608.488),
        note='000000')

species(name='C9H18',
        atoms='H:18 C:9',
        thermo=(NASA([300.00, 1000.00],
                     [-2.16108263E+00,  1.06958297E-01, -7.10973244E-05,
                       2.43971077E-08, -3.42771547E-12, -1.59890847E+04,
                       4.41245128E+01]),
                NASA([1000.00, 5000.00],
                     [ 7.88457953E+00,  7.50189757E-02, -3.39279528E-05,
                       5.69367977E-09,  0.00000000E+00, -1.84645629E+04,
                      -6.53628043E+00])),
        transport=gas_transport(geom='nonlinear',
                                diam=6.331,
                                well_depth=655.39),
        note='000000')

species(name='C10H20',
        atoms='H:20 C:10',
        thermo=(NASA([300.00, 1000.00],
                     [-2.42901688E+00,  1.19305598E-01, -7.94489025E-05,
                       2.72736596E-08, -3.82718373E-12, -1.88708365E+04,
                       4.70571383E+01]),
                NASA([1000.00, 5000.00],
                     [ 8.84741308E+00,  8.34887330E-02, -3.78172786E-05,
                       6.35528704E-09,  0.00000000E+00, -2.16518855E+04,
                      -9.82063228E+00])),
        transport=gas_transport(geom='nonlinear',
                                diam=6.578,
                                well_depth=698.122),
        note='000000')

species(name='C12H25O2',
        atoms='O:2 H:25 C:12',
        thermo=(NASA([300.00, 1000.00],
                     [ 5.31404000E+00,  8.93873000E-02,  1.45351000E-05,
                      -7.49250000E-08,  3.35325000E-11, -2.98918000E+04,
                       1.69741000E+01]),
                NASA([1000.00, 5000.00],
                     [ 2.84782000E+01,  5.37539000E-02, -1.68186000E-05,
                       2.51367000E-09, -1.47208000E-13, -3.74118000E+04,
                      -1.09121000E+02])),
        transport=gas_transport(geom='nonlinear',
                                diam=7.102,
                                well_depth=805.031),
        note='000000')

species(name='NXC12H26',
        atoms='H:26 C:12',
        thermo=(NASA([300.00, 1000.00],
                     [-2.62181594E+00,  1.47237711E-01, -9.43970271E-05,
                       3.07441268E-08, -4.03602230E-12, -4.00654253E+04,
                       5.00994626E+01]),
                NASA([1000.00, 5000.00],
                     [ 9.97283422E+00,  1.07615296E-01, -4.89001251E-05,
                       8.23896743E-09,  0.00000000E+00, -4.31954165E+04,
                      -1.35346202E+01])),
        transport=gas_transport(geom='nonlinear',
                                diam=7.047,
                                well_depth=789.98),
        note='000000')

species(name='OC12H23OOH',
        atoms='O:3 H:24 C:12',
        thermo=(NASA([300.00, 1000.00],
                     [ 8.80733000E+00,  6.50623000E-02,  6.95058000E-05,
                      -1.26905000E-07,  5.10991000E-11, -6.65361000E+04,
                       6.84155000E+00]),
                NASA([1000.00, 5000.00],
                     [ 2.36731000E+01,  6.16392000E-02, -2.09836000E-05,
                       3.33166000E-09, -2.03590000E-13, -7.18258000E+04,
                      -7.77662000E+01])),
        transport=gas_transport(geom='nonlinear',
                                diam=7.273,
                                well_depth=839.348),
        note='000000')

species(name='CH2',
        atoms='H:2 C:1',
        thermo=(NASA([300.00, 1000.00],
                     [ 3.76267867E+00,  9.68872143E-04,  2.79489841E-06,
                      -3.85091153E-09,  1.68741719E-12,  4.60040401E+04,
                       1.56253185E+00]),
                NASA([1000.00, 5000.00],
                     [ 2.87410113E+00,  3.65639292E-03, -1.40894597E-06,
                       2.60179549E-10, -1.87727567E-14,  4.62636040E+04,
                       6.17119324E+00])),
        transport=gas_transport(geom='linear',
                                diam=3.8,
                                well_depth=144.0),
        note='000000')

species(name='HCO',
        atoms='O:1 H:1 C:1',
        thermo=(NASA([300.00, 1000.00],
                     [ 4.22118584E+00, -3.24392532E-03,  1.37799446E-05,
                      -1.33144093E-08,  4.33768865E-12,  3.83956496E+03,
                       3.39437243E+00]),
                NASA([1000.00, 5000.00],
                     [ 2.77217438E+00,  4.95695526E-03, -2.48445613E-06,
                       5.89161778E-10, -5.33508711E-14,  4.01191815E+03,
                       9.79834492E+00])),
        transport=gas_transport(geom='nonlinear',
                                diam=3.59,
                                well_depth=498.0),
        note='000000')

species(name='CH2D',
        atoms='H:2 C:1',
        thermo=(NASA([300.00, 1000.00],
                     [ 4.19860411E+00, -2.36661419E-03,  8.23296220E-06,
                      -6.68815981E-09,  1.94314737E-12,  5.04968163E+04,
                      -7.69118967E-01]),
                NASA([1000.00, 5000.00],
                     [ 2.29203842E+00,  4.65588637E-03, -2.01191947E-06,
                       4.17906000E-10, -3.39716365E-14,  5.09259997E+04,
                       8.62650169E+00])),
        transport=gas_transport(geom='linear',
                                diam=3.8,
                                well_depth=144.0),
        note='000000')

species(name='CH3O',
        atoms='O:1 H:3 C:1',
        thermo=(NASA([300.00, 1000.00],
                     [ 3.71180502E+00, -2.80463306E-03,  3.76550971E-05,
                      -4.73072089E-08,  1.86588420E-11,  1.29569760E+03,
                       6.57240864E+00]),
                NASA([1000.00, 5000.00],
                     [ 4.75779238E+00,  7.44142474E-03, -2.69705176E-06,
                       4.38090504E-10, -2.63537098E-14,  3.78111940E+02,
                      -1.96680028E+00])),
        transport=gas_transport(geom='nonlinear',
                                diam=3.69,
                                well_depth=417.0),
        note='000000')

species(name='C2H3',
        atoms='H:3 C:2',
        thermo=(NASA([300.00, 1000.00],
                     [ 3.21246645E+00,  1.51479162E-03,  2.59209412E-05,
                      -3.57657847E-08,  1.47150873E-11,  3.48598468E+04,
                       8.51054025E+00]),
                NASA([1000.00, 5000.00],
                     [ 3.01672400E+00,  1.03302292E-02, -4.68082349E-06,
                       1.01763288E-09, -8.62607041E-14,  3.46128739E+04,
                       7.78732378E+00])),
        transport=gas_transport(geom='nonlinear',
                                diam=4.1,
                                well_depth=209.0),
        note='000000')

species(name='CH2CHO',
        atoms='O:1 H:3 C:2',
        thermo=(NASA([300.00, 1000.00],
                     [ 3.40906240E+00,  1.07385740E-02,  1.89149250E-06,
                      -7.15858310E-09,  2.86738510E-12,  6.20000000E+01,
                       9.57145350E+00]),
                NASA([1000.00, 5000.00],
                     [ 5.97566990E+00,  8.13059140E-03, -2.74362450E-06,
                       4.07030410E-10, -2.17601710E-14, -9.69500000E+02,
                      -5.03208790E+00])),
        transport=gas_transport(geom='nonlinear',
                                diam=3.97,
                                well_depth=436.0),
        note='000000')

species(name='C2H5',
        atoms='H:5 C:2',
        thermo=(NASA([300.00, 1000.00],
                     [ 4.30646568E+00, -4.18658892E-03,  4.97142807E-05,
                      -5.99126606E-08,  2.30509004E-11,  1.28416265E+04,
                       4.70720924E+00]),
                NASA([1000.00, 5000.00],
                     [ 1.95465642E+00,  1.73972722E-02, -7.98206668E-06,
                       1.75217689E-09, -1.49641576E-13,  1.28575200E+04,
                       1.34624343E+01])),
        transport=gas_transport(geom='nonlinear',
                                diam=4.302,
                                well_depth=252.3),
        note='000000')

species(name='AXC3H5',
        atoms='H:5 C:3',
        thermo=(NASA([300.00, 1000.00],
                     [ 1.36318350E+00,  1.98138210E-02,  1.24970600E-05,
                      -3.33555550E-08,  1.58465710E-11,  1.92456290E+04,
                       1.71732140E+01]),
                NASA([1000.00, 5000.00],
                     [ 6.50078770E+00,  1.43247310E-02, -5.67816320E-06,
                       1.10808010E-09, -9.03638870E-14,  1.74824490E+04,
                      -1.12430500E+01])),
        transport=gas_transport(geom='nonlinear',
                                diam=4.982,
                                well_depth=266.8),
        note='000000')

species(name='C2H3CHO',
        atoms='O:1 H:4 C:3',
        thermo=(NASA([300.00, 1000.00],
                     [ 1.27134980E+00,  2.62310540E-02, -9.29123050E-06,
                      -4.78372720E-09,  3.34805430E-12, -9.33573440E+03,
                       1.94980770E+01]),
                NASA([1000.00, 5000.00],
                     [ 5.81118680E+00,  1.71142560E-02, -7.48341610E-06,
                       1.42522490E-09, -9.17468410E-14, -1.07840540E+04,
                      -4.85880040E+00])),
        transport=gas_transport(geom='nonlinear',
                                diam=5.176,
                                well_depth=357.0),
        note='000000')

species(name='NXC3H7',
        atoms='H:7 C:3',
        thermo=(NASA([300.00, 1000.00],
                     [ 1.04911730E+00,  2.60089730E-02,  2.35425160E-06,
                      -1.95951320E-08,  9.37202070E-12,  1.03123460E+04,
                       2.11360340E+01]),
                NASA([1000.00, 5000.00],
                     [ 7.70974790E+00,  1.60314850E-02, -5.27202380E-06,
                       7.58883520E-10, -3.88627190E-14,  7.97622360E+03,
                      -1.55152970E+01])),
        transport=gas_transport(geom='nonlinear',
                                diam=4.982,
                                well_depth=266.8),
        note='000000')

species(name='C4H7',
        atoms='H:7 C:4',
        thermo=(NASA([300.00, 1000.00],
                     [ 7.44494320E-01,  3.96788570E-02, -2.28980860E-05,
                       2.13529730E-09,  2.30963750E-12,  2.26533280E+04,
                       2.34378780E+01]),
                NASA([1000.00, 5000.00],
                     [ 7.01348350E+00,  2.26345580E-02, -9.25454700E-06,
                       1.68079270E-09, -1.04086170E-13,  2.09550080E+04,
                      -8.88930800E+00])),
        transport=gas_transport(geom='nonlinear',
                                diam=5.176,
                                well_depth=357.0),
        note='000000')

species(name='PXC4H9',
        atoms='H:9 C:4',
        thermo=(NASA([300.00, 1000.00],
                     [ 1.20870420E+00,  3.82974970E-02, -7.26605090E-06,
                      -1.54285470E-08,  8.68594350E-12,  7.32210400E+03,
                       2.21692680E+01]),
                NASA([1000.00, 5000.00],
                     [ 8.68223950E+00,  2.36910710E-02, -7.59488650E-06,
                       6.64271360E-10,  5.48451360E-14,  4.96440580E+03,
                      -1.78917470E+01])),
        transport=gas_transport(geom='nonlinear',
                                diam=5.176,
                                well_depth=357.0),
        note='000000')

species(name='PXC5H11',
        atoms='H:11 C:5',
        thermo=(NASA([300.00, 1000.00],
                     [ 5.24384081E-02,  5.60796958E-02, -3.31545803E-05,
                       9.77533781E-09, -1.14009660E-12,  4.71611460E+03,
                       2.87238666E+01]),
                NASA([1000.00, 5000.00],
                     [ 3.69396793E+00,  4.46500156E-02, -2.00797119E-05,
                       3.34852346E-09,  0.00000000E+00,  3.80981997E+03,
                       1.03185651E+01])),
        transport=gas_transport(geom='nonlinear',
                                diam=5.445,
                                well_depth=458.182),
        note='000000')

species(name='PXC7H15',
        atoms='H:15 C:7',
        thermo=(NASA([300.00, 1000.00],
                     [-4.99570406E-01,  8.08826467E-02, -5.00532754E-05,
                       1.56549308E-08, -1.96616227E-12, -1.04590223E+03,
                       3.46564011E+01]),
                NASA([1000.00, 5000.00],
                     [ 5.67638200E+00,  6.14628445E-02, -2.77753660E-05,
                       4.65470891E-09,  0.00000000E+00, -2.58110033E+03,
                       3.45048078E+00])),
        transport=gas_transport(geom='nonlinear',
                                diam=6.004,