#---------------------------------------------------------------------------
#  CTI File converted from Solution Object
#---------------------------------------------------------------------------

units(length = "cm", time = "s", quantity = "mol", act_energy = "cal/mol")

ideal_gas(name = "gas", 
     elements = "C H O N", 
     species = """ HMN X1C11H23 XC12H26 X1C12H25 X2C12H25 X3C12H25 
                 X4C12H25 XC12H25O2-1 XC12H25O2-2 XC12H25O2-3 XC12OOH1-2 XC12OOH1-3 
                 XC12OOH2-1 XC12OOH2-2P XC12OOH3-1 XC12H24-3 
                 XC12OOH1-2O2 XC12OOH2-1O2 XC12OOH2-2PO2 XC12H23-42 X1C11H22 
                 X2C11H22 XC11H21 XC12Q12-R2P XC12Q12-R3 XC12Q13-R1 
                 XC12Q13-R1P XC12Q13-R2 HMN-R2 HMN-R3 HMN-R5 HMN-R6 
                 CC15H31 FC12H25 IC9-R1 AC15H29 I24C7D13 N2 H2 H O2 O H2O 
                 OH OHV H2O2 HO2 CO CO2 CH4 CH3 C CH CH3O2H CH3O2 
                 CH3OH CH3O CH2OH CH2O HCO C2H6 C2H5 C2H5O2H C2H5O2 C2H4 
                 C2H3 C2H3OO C2H2 C2H CH3CHO CH2CO HCCO IC3H7 C3H6 
                 C3H5-A C3H5-S C3H5-T C3H6OH1-2 AC3H5OOH C3H3 C3H3O 
                 C2H3CO CH3COCH2O TC4H9O IC4H8O IC3H7CHO TC3H6OCHO 
                 IC3H5CO IC3H4CHO-A TC4H9O2 IC4H8O2H-T TC4H8O2H-I 
                 IC4H7OOH TC4H9O2H IC4H7 IC4H7-I1 NEOC5H11 NEOC5H11O2H 
                 NEOC5H11O2 NEOC5H11O NEOC5H10OOH NEOC5H10OOH-O2 NEOC5KET 
                 NEOC5KETOX AC5H10 IC6D13 IC8-1R IC8-4R IC8-5R 
                 IC8D3-5R IC8D4-5R IC8OOH5-3O2R IC8KET5-3 IC8D4-5OOH 
                 IC8KET5-3O I24C7D1 NEC7D3 NEC7D4 NEC7Y4 IC8D4-1R 
                 IC6D13-1AR NEC7D4-3OR TC4H9CO3H C6H11(L1) C16H33(L1) 
                 C12H25O4(L1) C7H13(L1) C7H15(L1) C8H16O(L1) C8H17O2(L1) 
                 C5H9O3(L1) C5H9O(L1) C5H10O(L1) C4H8(L1) C4H7O3(L1) 
                 C4H6O(L1) C4H7O(L1) C4H9(L1) C3H6O(L1) C3H4(L1) 
                 C3H4O(L1) C3H5O(L1) C2H3O(L1) C2H5O(L1) CH2(L1) C8H16(L1) 
                 C15H30(L1) C16H32O(L1) C16H33O2(L1) C12H24O3(L1) 
                 C12H24O(L1) C12H25O(L1) """, 
     reactions = "all", 
     transport = "Mix", 
     initial_state = state(temperature = 3.000000E+02, pressure= 1.013250E+05)   )       

#---------------------------------------------------------------------------
#  Species data
#---------------------------------------------------------------------------

species(name = "HMN",
    atoms = "C:16  H:34", 
    thermo = (
       NASA(   [300.0, 2024.0], [-8.376963160e+00, 2.132454630e-01,
                -1.318846160e-04, 3.843656270e-08,
                -4.253730590e-12,
                -5.263309240e+04, 7.144657860e+01]  ),
       NASA(   [2024.0, 5000.0], [5.224867700e+01, 8.160780120e-02,
                -2.998926620e-05, 4.902970200e-09,
                -2.953246290e-13,
                -7.352939090e+04,
                -2.562890760e+02]  )
               ),
    transport = gas_transport(
                   geom = "nonlinear",
                   diam = 8.35, 
                   well_depth = 650.0, 
                   polar = 0.0, 
                   rot_relax = 1.0) 
        )

species(name = "X1C11H23",
    atoms = "C:11  H:23", 
    thermo = (
       NASA(   [300.0, 1378.0], [-1.875111120e+00, 1.290943320e-01,
                -7.708012540e-05, 2.357090640e-08,
                -3.352183820e-12,
                -1.673200280e+04, 4.252971840e+01]  ),
       NASA(   [1378.0, 5000.0], [3.718801210e+01, 4.947056490e-02,
                -1.716383850e-05, 2.690871180e-09,
                -1.571998380e-13,
                -3.157597120e+04,
                -1.716672860e+02]  )
               ),
    transport = gas_transport(
                   geom = "nonlinear",
                   diam = 6.800000000000001, 
                   well_depth = 754.2, 
                   polar = 21.030000000000005, 
                   rot_relax = 1.0) 
        )

species(name = "XC12H26",
    atoms = "C:12  H:26", 
    thermo = (
       NASA(   [300.0, 1364.0], [-4.055349160e+00, 1.500388430e-01,
                -8.466862610e-05, 2.164253230e-08,
                -2.257696090e-12,
                -4.207570980e+04, 4.679033250e+01]  ),
       NASA(   [1364.0, 5000.0], [4.550557470e+01, 5.317464790e-02,
                -1.867707580e-05, 2.952721920e-09,
                -1.735194510e-13,
                -6.118631440e+04,
                -2.262086780e+02]  )
               ),
    transport = gas_transport(
                   geom = "nonlinear",
                   diam = 7.12, 
                   well_depth = 833.78, 
                   polar = 22.750000000000004, 
                   rot_relax = 1.0) 
        )

species(name = "X1C12H25",
    atoms = "C:12  H:25", 
    thermo = (
       NASA(   [300.0, 1363.0], [-3.705222770e+00, 1.465404810e-01,
                -8.330209480e-05, 2.144995300e-08,
                -2.245451760e-12,
                -1.810576570e+04, 4.993139240e+01]  ),
       NASA(   [1363.0, 5000.0], [4.500253370e+01, 5.101353750e-02,
                -1.792371570e-05, 2.834385950e-09,
                -1.666015390e-13,
                -3.683715830e+04,
                -2.182211090e+02]  )
               ),
    transport = gas_transport(
                   geom = "nonlinear",
                   diam = 7.12, 
                   well_depth = 833.78, 
                   polar = 22.750000000000004, 
                   rot_relax = 1.0) 
        )

species(name = "X2C12H25",
    atoms = "C:12  H:25", 
    thermo = (
       NASA(   [300.0, 1683.0], [-2.451867060e+00, 1.359289500e-01,
                -6.295198480e-05, 5.641681200e-09,
                2.136093070e-12, -1.970903700e+04,
                4.455470180e+01]  ),
       NASA(   [1683.0, 5000.0], [3.672008140e+01, 6.127919890e-02,
                -2.240166510e-05, 3.649293670e-09,
                -2.192474770e-13,
                -3.399173320e+04,
                -1.703310420e+02]  )
               ),
    transport = gas_transport(
                   geom = "nonlinear",
                   diam = 7.12, 
                   well_depth = 833.78, 
                   polar = 22.750000000000004, 
                   rot_relax = 1.0) 
        )

species(name = "X3C12H25",
    atoms = "C:12  H:25", 
    thermo = (
       NASA(   [300.0, 1677.0], [-1.081269630e+00, 1.288190920e-01,
                -5.199618600e-05,
                -9.818393950e-10, 3.534418100e-12,
                -2.142105130e+04, 3.770431780e+01]  ),
       NASA(   [1677.0, 5000.0], [3.643676820e+01, 6.179547610e-02,
                -2.265034620e-05, 3.696289750e-09,
                -2.223409280e-13,
                -3.551126790e+04,
                -1.696508640e+02]  )
               ),
    transport = gas_transport(
                   geom = "nonlinear",
                   diam = 7.12, 
                   well_depth = 833.78, 
                   polar = 22.750000000000004, 
                   rot_relax = 1.0) 
        )

species(name = "X4C12H25",
    atoms = "C:12  H:25", 
    thermo = (
       NASA(   [300.0, 1363.0], [-3.705222770e+00, 1.465404810e-01,
                -8.330209480e-05, 2.144995300e-08,
                -2.245451760e-12,
                -1.886067260e+04, 4.745026510e+01]  ),
       NASA(   [1363.0, 5000.0], [4.500253370e+01, 5.101353750e-02,
                -1.792371570e-05, 2.834385950e-09,
                -1.666015390e-13,
                -3.759206520e+04,
                -2.207022360e+02]  )
               ),
    transport = gas_transport(
                   geom = "nonlinear",
                   diam = 7.12, 
                   well_depth = 833.78, 
                   polar = 22.750000000000004, 
                   rot_relax = 1.0) 
        )

species(name = "XC12H25O2-1",
    atoms = "C:12  H:25  O:2", 
    thermo = (
       NASA(   [300.0, 1366.0], [-2.233735200e+00, 1.561271140e-01,
                -9.306131450e-05, 2.631121870e-08,
                -3.206803910e-12,
                -3.625133020e+04, 4.649514050e+01]  ),
       NASA(   [1366.0, 5000.0], [4.956540910e+01, 5.209337870e-02,
                -1.835853040e-05, 2.908714680e-09,
                -1.711898020e-13,
                -5.593454030e+04,
                -2.378209400e+02]  )
               ),
    transport = gas_transport(
                   geom = "nonlinear",
                   diam = 7.06, 
                   well_depth = 789.16, 
                   polar = 22.750000000000004, 
                   rot_relax = 1.0) 
        )

species(name = "XC12H25O2-2",
    atoms = "C:12  H:25  O:2", 
    thermo = (
       NASA(   [300.0, 1370.0], [-1.568924500e+00, 1.569673810e-01,
                -9.660907590e-05, 2.891073350e-08,
                -3.783430390e-12,
                -3.772865950e+04, 4.035811210e+01]  ),
       NASA(   [1370.0, 5000.0], [5.007568500e+01, 5.128080520e-02,
                -1.808544130e-05, 2.866612060e-09,
                -1.687524410e-13,
                -5.715645770e+04,
                -2.424089130e+02]  )
               ),
    transport = gas_transport(
                   geom = "nonlinear",
                   diam = 7.06, 
                   well_depth = 789.16, 
                   polar = 22.750000000000004, 
                   rot_relax = 1.0) 
        )

species(name = "XC12H25O2-3",
    atoms = "C:12  H:25  O:2", 
    thermo = (
       NASA(   [300.0, 1365.0], [-1.007232290e+00, 1.531666390e-01,
                -9.082634460e-05, 2.573801230e-08,
                -3.224864110e-12,
                -3.995143020e+04, 3.492054940e+01]  ),
       NASA(   [1365.0, 5000.0], [4.986567710e+01, 5.159777380e-02,
                -1.822739350e-05, 2.892320180e-09,
                -1.703978110e-13,
                -5.938419800e+04,
                -2.446021240e+02]  )
               ),
    transport = gas_transport(
                   geom = "nonlinear",
                   diam = 7.06, 
                   well_depth = 789.16, 
                   polar = 22.750000000000004, 
                   rot_relax = 1.0) 
        )

species(name = "XC12OOH1-2",
    atoms = "C:12  H:25  O:2", 
    thermo = (
       NASA(   [300.0, 2027.0], [-3.124365040e+00, 1.592050580e-01,
                -9.852250210e-05, 2.887296430e-08,
                -3.229567830e-12,
                -3.039213820e+04, 5.325856380e+01]  ),
       NASA(   [2027.0, 5000.0], [4.150308820e+01, 6.184230840e-02,
                -2.268786350e-05, 3.704258550e-09,
                -2.228866470e-13,
                -4.571516470e+04,
                -1.878042990e+02]  )
               ),
    transport = gas_transport(
                   geom = "nonlinear",
                   diam = 7.06, 
                   well_depth = 789.16, 
                   polar = 22.750000000000004, 
                   rot_relax = 1.0) 
        )

species(name = "XC12OOH1-3",
    atoms = "C:12  H:25  O:2", 
    thermo = (
       NASA(   [300.0, 1684.0], [1.443790360e-01, 1.399628030e-01,
                -6.416136740e-05, 5.031017000e-09,
                2.410455900e-12, -3.155151680e+04,
                3.900065710e+01]  ),
       NASA(   [1684.0, 5000.0], [4.115215890e+01, 6.246952270e-02,
                -2.298611270e-05, 3.760123540e-09,
                -2.265405250e-13,
                -4.657633630e+04,
                -1.862031980e+02]  )
               ),
    transport = gas_transport(
                   geom = "nonlinear",
                   diam = 7.06, 
                   well_depth = 789.16, 
                   polar = 22.750000000000004, 
                   rot_relax = 1.0) 
        )

species(name = "XC12OOH2-1",
    atoms = "C:12  H:25  O:2", 
    thermo = (
       NASA(   [300.0, 1373.0], [-2.065550790e+00, 1.599086290e-01,
                -1.015450570e-04, 3.190105080e-08,
                -4.383309040e-12,
                -3.043630290e+04, 4.551444880e+01]  ),
       NASA(   [1373.0, 5000.0], [5.002532320e+01, 5.107343280e-02,
                -1.795803420e-05, 2.840863860e-09,
                -1.670147570e-13,
                -4.978506700e+04,
                -2.388585920e+02]  )
               ),
    transport = gas_transport(
                   geom = "nonlinear",
                   diam = 7.06, 
                   well_depth = 789.16, 
                   polar = 22.750000000000004, 
                   rot_relax = 1.0) 
        )

species(name = "XC12OOH2-2P",
    atoms = "C:12  H:25  O:2", 
    thermo = (
       NASA(   [300.0, 2034.0], [-2.612254420e+00, 1.603498930e-01,
                -1.019889880e-04, 3.109155180e-08,
                -3.662916570e-12,
                -3.183756830e+04, 4.790001950e+01]  ),
       NASA(   [2034.0, 5000.0], [4.225582140e+01, 6.044826440e-02,
                -2.202780480e-05, 3.581507860e-09,
                -2.149098080e-13,
                -4.702732070e+04,
                -1.936888520e+02]  )
               ),
    transport = gas_transport(
                   geom = "nonlinear",
                   diam = 7.06, 
                   well_depth = 789.16, 
                   polar = 22.750000000000004, 
                   rot_relax = 1.0) 
        )

species(name = "XC12OOH3-1",
    atoms = "C:12  H:25  O:2", 
    thermo = (
       NASA(   [300.0, 1368.0], [-1.487178350e+00, 1.560140660e-01,
                -9.558575580e-05, 2.858304050e-08,
                -3.782184380e-12,
                -3.266117180e+04, 3.987734870e+01]  ),
       NASA(   [1368.0, 5000.0], [4.982210120e+01, 5.137392520e-02,
                -1.809220850e-05, 2.865161020e-09,
                -1.685706570e-13,
                -5.201497960e+04,
                -2.412133560e+02]  )
               ),
    transport = gas_transport(
                   geom = "nonlinear",
                   diam = 7.06, 
                   well_depth = 789.16, 
                   polar = 22.750000000000004, 
                   rot_relax = 1.0) 
        )

species(name = "XC12H24-3",
    atoms = "C:12  H:24", 
    thermo = (
       NASA(   [300.0, 1382.0], [-5.869996200e+00, 1.516636340e-01,
                -9.856841280e-05, 3.298373400e-08,
                -4.903948080e-12,
                -2.844052910e+04, 5.593918110e+01]  ),
       NASA(   [1382.0, 5000.0], [4.080889410e+01, 5.148815710e-02,
                -1.786359380e-05, 2.800850090e-09,
                -1.636453050e-13,
                -4.554825190e+04,
                -1.980036700e+02]  )
               ),
    transport = gas_transport(
                   geom = "nonlinear",
                   diam = 7.12, 
                   well_depth = 833.78, 
                   polar = 22.750000000000004, 
                   rot_relax = 1.0) 
        )

species(name = "XC12OOH1-2O2",
    atoms = "C:12  H:25  O:4", 
    thermo = (
       NASA(   [300.0, 1374.0], [-6.177387340e-01, 1.695671380e-01,
                -1.113393940e-04, 3.672442530e-08,
                -5.328674090e-12,
                -4.857762480e+04, 4.219352730e+01]  ),
       NASA(   [1374.0, 5000.0], [5.468595280e+01, 5.197011140e-02,
                -1.830938310e-05, 2.900196450e-09,
                -1.706546920e-13,
                -6.891251150e+04,
                -2.589883880e+02]  )
               ),
    transport = gas_transport(
                   geom = "nonlinear",
                   diam = 7.06, 
                   well_depth = 789.16, 
                   polar = 22.750000000000004, 
                   rot_relax = 1.0) 
        )

species(name = "XC12OOH2-1O2",
    atoms = "C:12  H:25  O:4", 
    thermo = (
       NASA(   [300.0, 1374.0], [-6.177387340e-01, 1.695671380e-01,
                -1.113393940e-04, 3.672442530e-08,
                -5.328674090e-12,
                -4.857762480e+04, 4.219352730e+01]  ),
       NASA(   [1374.0, 5000.0], [5.468595280e+01, 5.197011140e-02,
                -1.830938310e-05, 2.900196450e-09,
                -1.706546920e-13,
                -6.891251150e+04,
                -2.589883880e+02]  )
               ),
    transport = gas_transport(
                   geom = "nonlinear",
                   diam = 7.06, 
                   well_depth = 789.16, 
                   polar = 22.750000000000004, 
                   rot_relax = 1.0) 
        )

species(name = "XC12OOH2-2PO2",
    atoms = "C:12  H:25  O:4", 
    thermo = (
       NASA(   [300.0, 1375.0], [-4.639619520e-01, 1.723160890e-01,
                -1.168844460e-04, 3.977918010e-08,
                -5.809741360e-12,
                -4.997074460e+04, 3.779409690e+01]  ),
       NASA(   [1375.0, 5000.0], [5.539064770e+01, 5.046356680e-02,
                -1.759592620e-05, 2.769196660e-09,
                -1.622493230e-13,
                -7.009789610e+04,
                -2.651106350e+02]  )
               ),
    transport = gas_transport(
                   geom = "nonlinear",
                   diam = 7.06, 
                   well_depth = 789.16, 
                   polar = 22.750000000000004, 
                   rot_relax = 1.0) 
        )

species(name = "XC12H23-42",
    atoms = "C:12  H:23", 
    thermo = (
       NASA(   [300.0, 1456.0], [1.346324060e+00, 1.085153390e-01,
                -1.144905620e-05,
                -3.278570370e-08, 1.181073190e-11,
                -1.375081830e+04, 2.361362220e+01]  ),
       NASA(   [1456.0, 5000.0], [4.829809240e+01, 4.521058870e-02,
                -1.630373790e-05, 2.622303800e-09,
                -1.559354340e-13,
                -3.413809390e+04,
                -2.440251270e+02]  )
               ),
    transport = gas_transport(
                   geom = "nonlinear",
                   diam = 7.12, 
                   well_depth = 833.78, 
                   polar = 22.750000000000004, 
                   rot_relax = 1.0) 
        )

species(name = "X1C11H22",
    atoms = "C:11  H:22", 
    thermo = (
       NASA(   [300.0, 1382.0], [-4.131442540e+00, 1.378985440e-01,
                -9.313664590e-05, 3.401231210e-08,
                -5.706102760e-12,
                -2.495936420e+04, 5.057822020e+01]  ),
       NASA(   [1382.0, 5000.0], [3.718200750e+01, 4.740867090e-02,
                -1.646461670e-05, 2.582945490e-09,
                -1.509638580e-13,
                -4.003805890e+04,
                -1.737463250e+02]  )
               ),
    transport = gas_transport(
                   geom = "nonlinear",
                   diam = 6.68, 
                   well_depth = 686.12, 
                   polar = 19.100000000000005, 
                   rot_relax = 1.0) 
        )

species(name = "X2C11H22",
    atoms = "C:11  H:22", 
    thermo = (
       NASA(   [300.0, 1685.0], [1.741697500e+00, 1.030116070e-01,
                -2.835073160e-05,
                -1.127140890e-08, 5.216552090e-12,
                -2.737409280e+04, 2.430632600e+01]  ),
       NASA(   [1685.0, 5000.0], [3.201707590e+01, 5.705283980e-02,
                -2.120029100e-05, 3.489303090e-09,
                -2.110775990e-13,
                -3.954968760e+04,
                -1.459361390e+02]  )
               ),
    transport = gas_transport(
                   geom = "nonlinear",
                   diam = 6.68, 
                   well_depth = 686.12, 
                   polar = 19.100000000000005, 
                   rot_relax = 1.0) 
        )

species(name = "XC11H21",
    atoms = "C:11  H:21", 
    thermo = (
       NASA(   [300.0, 1380.0], [-4.354006380e+00, 1.357097960e-01,
                -9.168786760e-05, 3.323792260e-08,
                -5.540337690e-12,
                -7.997811450e+03, 5.052353150e+01]  ),
       NASA(   [1380.0, 5000.0], [3.720731770e+01, 4.527950860e-02,
                -1.582840880e-05, 2.493934850e-09,
                -1.461997250e-13,
                -2.322374260e+04,
                -1.753560330e+02]  )
               ),
    transport = gas_transport(
                   geom = "nonlinear",
                   diam = 6.73, 
                   well_depth = 748.55, 
                   polar = 20.670000000000005, 
                   rot_relax = 1.0) 
        )

species(name = "XC12Q12-R2P",
    atoms = "C:12  H:25  O:4", 
    thermo = (
       NASA(   [300.0, 1370.0], [3.933149430e-01, 1.620603810e-01,
                -9.885319630e-05, 2.798987360e-08,
                -3.154966470e-12,
                -4.295257250e+04, 4.057436150e+01]  ),
       NASA(   [1370.0, 5000.0], [5.425888360e+01, 5.162906270e-02,
                -1.813185420e-05, 2.866396210e-09,
                -1.684448560e-13,
                -6.305855740e+04,
                -2.540317200e+02]  )
               ),
    transport = gas_transport(
                   geom = "nonlinear",
                   diam = 7.6, 
                   well_depth = 680.0, 
                   polar = 0.0, 
                   rot_relax = 1.0) 
        )

species(name = "XC12Q12-R3",
    atoms = "C:12  H:25  O:4", 
    thermo = (
       NASA(   [300.0, 1367.0], [2.615247880e+00, 1.546595160e-01,
                -9.081115950e-05, 2.472830790e-08,
                -2.790757350e-12,
                -4.424163790e+04, 3.105520510e+01]  ),
       NASA(   [1367.0, 5000.0], [5.394211310e+01, 5.217960420e-02,
                -1.838257030e-05, 2.911746520e-09,
                -1.713332290e-13,
                -6.378175940e+04,
                -2.508371340e+02]  )
               ),
    transport = gas_transport(
                   geom = "nonlinear",
                   diam = 7.6, 
                   well_depth = 680.0, 
                   polar = 0.0, 
                   rot_relax = 1.0) 
        )

species(name = "XC12Q13-R1",
    atoms = "C:12  H:25  O:4", 
    thermo = (
       NASA(   [300.0, 1372.0], [-1.696847680e-01, 1.670611880e-01,
                -1.082429600e-04, 3.538934030e-08,
                -5.196939180e-12,
                -4.281180990e+04, 4.041279730e+01]  ),
       NASA(   [1372.0, 5000.0], [5.468752140e+01, 5.192954890e-02,
                -1.838131910e-05, 2.920423570e-09,
                -1.721980410e-13,
                -6.319795010e+04,
                -2.589928560e+02]  )
               ),
    transport = gas_transport(
                   geom = "nonlinear",
                   diam = 7.6, 
                   well_depth = 680.0, 
                   polar = 0.0, 
                   rot_relax = 1.0) 
        )

species(name = "XC12Q13-R1P",
    atoms = "C:12  H:25  O:4", 
    thermo = (
       NASA(   [300.0, 1372.0], [-1.696847680e-01, 1.670611880e-01,
                -1.082429600e-04, 3.538934030e-08,
                -5.196939180e-12,
                -4.356671680e+04, 4.150992870e+01]  ),
       NASA(   [1372.0, 5000.0], [5.468752140e+01, 5.192954890e-02,
                -1.838131910e-05, 2.920423570e-09,
                -1.721980410e-13,
                -6.395285700e+04,
                -2.578957240e+02]  )
               ),
    transport = gas_transport(
                   geom = "nonlinear",
                   diam = 7.6, 
                   well_depth = 680.0, 
                   polar = 0.0, 
                   rot_relax = 1.0) 
        )

species(name = "XC12Q13-R2",
    atoms = "C:12  H:25  O:4", 
    thermo = (
       NASA(   [300.0, 1369.0], [1.427005790e+00, 1.601948030e-01,
                -9.857570910e-05, 2.971891700e-08,
                -4.001940310e-12,
                -4.441627880e+04, 3.285493410e+01]  ),
       NASA(   [1369.0, 5000.0], [5.446070530e+01, 5.216849260e-02,
                -1.847399960e-05, 2.935958760e-09,
                -1.731458210e-13,
                -6.445999070e+04,
                -2.577756950e+02]  )
               ),
    transport = gas_transport(
                   geom = "nonlinear",
                   diam = 7.6, 
                   well_depth = 680.0, 
                   polar = 0.0, 
                   rot_relax = 1.0) 
        )

species(name = "HMN-R2",
    atoms = "C:16  H:33", 
    thermo = (
       NASA(   [300.0, 1678.0], [-3.593983500e+00, 1.820257380e-01,
                -8.180430050e-05, 4.797852230e-09,
                3.625891010e-12, -3.142565240e+04,
                5.370289640e+01]  ),
       NASA(   [1678.0, 5000.0], [5.048638690e+01, 8.071295130e-02,
                -2.970457280e-05, 4.860151360e-09,
                -2.928692000e-13,
                -5.128926750e+04,
                -2.435395950e+02]  )
               ),
    transport = gas_transport(
                   geom = "nonlinear",
                   diam = 8.35, 
                   well_depth = 650.0, 
                   polar = 0.0, 
                   rot_relax = 1.0) 
        )

species(name = "HMN-R3",
    atoms = "C:16  H:33", 
    thermo = (
       NASA(   [300.0, 2023.0], [-7.966078940e+00, 2.094806280e-01,
                -1.301655360e-04, 3.809184430e-08,
                -4.232504430e-12,
                -2.942713750e+04, 7.250991690e+01]  ),
       NASA(   [2023.0, 5000.0], [5.199634300e+01, 7.911834790e-02,
                -2.909227650e-05, 4.758676550e-09,
                -2.867440640e-13,
                -5.007629110e+04,
                -2.515751480e+02]  )
               ),
    transport = gas_transport(
                   geom = "nonlinear",
                   diam = 8.35, 
                   well_depth = 650.0, 
                   polar = 0.0, 
                   rot_relax = 1.0) 
        )

species(name = "HMN-R5",
    atoms = "C:16  H:33", 
    thermo = (
       NASA(   [300.0, 1672.0], [-2.294866360e+00, 1.751310620e-01,
                -7.090361270e-05,
                -2.015605950e-09, 5.108568750e-12,
                -3.237015000e+04, 4.788920150e+01]  ),
       NASA(   [1672.0, 5000.0], [5.055760870e+01, 8.063491940e-02,
                -2.968750330e-05, 4.859677200e-09,
                -2.929687350e-13,
                -5.218773430e+04,
                -2.441425570e+02]  )
               ),
    transport = gas_transport(
                   geom = "nonlinear",
                   diam = 8.35, 
                   well_depth = 650.0, 
                   polar = 0.0, 
                   rot_relax = 1.0) 
        )

species(name = "HMN-R6",
    atoms = "C:16  H:33", 
    thermo = (
       NASA(   [300.0, 2023.0], [-7.966078940e+00, 2.094806280e-01,
                -1.301655360e-04, 3.809184430e-08,
                -4.232504430e-12,
                -2.942713750e+04, 7.182043530e+01]  ),
       NASA(   [2023.0, 5000.0], [5.199634300e+01, 7.911834790e-02,
                -2.909227650e-05, 4.758676550e-09,
                -2.867440640e-13,
                -5.007629110e+04,
                -2.522646290e+02]  )
               ),
    transport = gas_transport(
                   geom = "nonlinear",
                   diam = 8.35, 
                   well_depth = 650.0, 
                   polar = 0.0, 
                   rot_relax = 1.0) 
        )

species(name = "CC15H31",
    atoms = "C:15  H:31", 
    thermo = (
       NASA(   [300.0, 1371.0], [2.727878980e+01, 3.455785930e-02,
                1.010628440e-04, -7.443125460e-08,
                1.280126980e-11, -3.277041930e+04,
                -8.987557790e+01]  ),
       NASA(   [1371.0, 5000.0], [4.053066420e+01, 9.999766620e-02,
                -4.042336120e-05, 6.952569140e-09,
                -4.314031160e-13,
                -4.996830530e+04,
                -2.005645730e+02]  )
               ),
    transport = gas_transport(
                   geom = "nonlinear",
                   diam = 7.46, 
                   well_depth = 977.66, 
                   polar = 28.41, 
                   rot_relax = 1.0) 
        )

species(name = "FC12H25",
    atoms = "C:12  H:25", 
    thermo = (
       NASA(   [300.0, 1363.0], [-3.704926360e+00, 1.465385710e-01,
                -8.329834050e-05, 2.144705940e-08,
                -2.244681460e-12,
                -1.735089010e+04, 4.993012990e+01]  ),
       NASA(   [1363.0, 5000.0], [4.500253370e+01, 5.101353750e-02,
                -1.792371570e-05, 2.834385950e-09,
                -1.666015390e-13,
                -3.608225550e+04,
                -2.182211250e+02]  )
               ),
    transport = gas_transport(
                   geom = "nonlinear",
                   diam = 7.12, 
                   well_depth = 833.78, 
                   polar = 22.750000000000004, 
                   rot_relax = 1.0) 
        )

species(name = "IC9-R1",
    atoms = "C:9  H:19", 
    thermo = (
       NASA(   [300.0, 1363.0], [2.184587280e+01, -4.270995810e-03,
                9.780839400e-05, -6.465017120e-08,
                1.103039340e-11, -1.265642990e+04,
                -7.191043370e+01]  ),
       NASA(   [1363.0, 5000.0], [2.704622530e+01, 5.880354390e-02,
                -2.412090170e-05, 4.192699670e-09,
                -2.622061680e-13,
                -2.419456880e+04,
                -1.305190710e+02]  )
               ),
    transport = gas_transport(
                   geom = "nonlinear",
                   diam = 6.4, 
                   well_depth = 652.84, 
                   polar = 17.36, 
                   rot_relax = 1.0) 
        )

species(name = "AC15H29",
    atoms = "C:15  H:29", 
    thermo = (
       NASA(   [300.0, 1398.0], [-7.901869540e+00, 2.058499590e-01,
                -1.646958910e-04, 7.146760320e-08,
                -1.323200500e-11,
                -1.217666730e+04, 7.231603110e+01]  ),
       NASA(   [1398.0, 5000.0], [4.999703030e+01, 6.088779190e-02,
                -2.068621720e-05, 3.197871300e-09,
                -1.850039370e-13,
                -3.136078240e+04,
                -2.353855110e+02]  )
               ),
    transport = gas_transport(
                   geom = "nonlinear",
                   diam = 7.46, 
                   well_depth = 977.66, 
                   polar = 28.41, 
                   rot_relax = 1.0) 
        )

species(name = "I24C7D13",
    atoms = "C:7  H:12", 
    thermo = (
       NASA(   [300.0, 1397.0], [-2.408199440e+00, 8.431296430e-02,
                -6.847788100e-05, 3.152849290e-08,
                -6.291669330e-12,
                -1.220569030e+03, 3.706764220e+01]  ),
       NASA(   [1397.0, 5000.0], [1.973562770e+01, 2.779286330e-02,
                -9.488331020e-06, 1.471015820e-09,