"""


"""

units(length='cm', time='s', quantity='mol', act_energy='cal/mol')

ideal_gas(name='gas',
          elements="C H N O Ar He",
          species="""HMN              X1C11H23         X4C11H23
                     XC12H26          X1C12H25         X2C12H25
                     X3C12H25         X4C12H25         X3C12H25O
                     X4C12H25O        XC12H25O2-1      XC12H25O2-2
                     XC12H25O2-3      XC12OOH1-2       XC12OOH1-3
                     XC12OOH2-1       XC12OOH2-2P      XC12OOH3-1
                     XC12H24-3        XC12OOH1-2O2     XC12OOH1-3O2
                     XC12OOH2-1O2     XC12OOH2-2PO2    XC12OOH3-1O2
                     XC12CYO1-2       XC12CYO1-3       XC12CYO2-2P
                     XC12H23-42       XC12KET1-2       XC12KET2-1
                     XC12KET2-2P      X1C11H22         X2C11H22
                     XC11H21          XC12Q12-R2P      XC12Q12-R3
                     XC12Q13-R1       XC12Q13-R1P      XC12Q13-R2
                     ET22PXC12Q1      ET13XC12Q1       ET13XC12Q1P
                     ET23XC12Q1       HMN-R1           HMN-R2
                     HMN-R3           HMN-R5           HMN-R6
                     HMN-R8           BC16H32          HMN-R1O2
                     HMN-R2O2         HMN-R5O2         HMN-R6O2
                     HMN-R8O2         HMNOOH1-1        HMNOOH1-2
                     HMNOOH2-1        HMNOOH5-2        HMNOOH5-8
                     HMNOOH6-5        HMNOOH6-8        HMNOOH8-5
                     HMNOOH8-6        HMNOOH8-7        HMNOOH8-8
                     HMNOOH1-1O2      HMNOOH1-2O2      HMNOOH5-2O2
                     HMNOOH5-8O2      HMNOOH6-8O2      HMNOOH7-8O2
                     HMNOOH8-6O2      HMNOOH8-7O2      HMNO1-1
                     HMNO1-2          HMNO2-5          HMNO5-6
                     HMNO5-8          HMNO6-8          HMNO7-8
                     HMNKET1-1        HMNKET1-2        HMNKET7-8
                     HMNKET8-7        BC16H31Q8        HMNQ11-R2
                     HMNQ12-R4        HMNQ25-R4        HMNQ58-R7
                     HMNQ68-R5        HMNQ68-R7        HMNQ68-R8
                     HMNQ78-R4        HMNQ78-R5        HMNQ78-R8
                     ET12HMNQ1        ET24HMNQ1        ET45HMNQ2
                     ET47HMNQ8        ET57HMNQ8        ET78HMNQ8
                     ET88HMNQ6        AC15H31          CC15H31
                     FC12H25          IC9-R1           AC15H30
                     BC15H30          HC15H30          IC15H30
                     AC15H29          AC12H24          AC12H23
                     DC11H22          IC8H17CHO        IC8H17CO
                     DC7H15CHO        DC7H15CO         AC11H23CHO
                     AC11H23CO        HC11H23CHO       HC11H23CO
                     IC9-1O2R         IC9Q1-R1         IC9Q1-R2
                     IC9O1-1          IC9O1-2          IC9KET1-2
                     IC9Q1-2O2        I24C7D13         I24C7D1-5R
                     IC4H7COCH3       IC8D3-1O2R       IC8D4-1O2R
                     IC8D3OOH1-1AR    IC8D4OOH1-3R     IC8D3O1-1A
                     IC8D3            IC8D4            N2
                     HE               H2               H
                     O2               O                H2O
                     OH               OHV              H2O2
                     HO2              CO               CO2
                     CH4              CH3              CH2
                     CH2(S)           C                CH
                     CHV              CH3O2H           CH3O2
                     CH3OH            CH3O             CH2OH
                     CH2O             HCO              HCOH
                     HOCH2O           HOCHO            C2H6
                     C2H5             C2H5O2H          C2H5O2
                     C2H4             C2H3             CHOCHO
                     C2H3OO           CHCHO            C2H2
                     C2H              H2CC             C2H5O
                     PC2H4OH          SC2H4OH          C2H3O1-2
                     CH3CHO           CH3CO            CH2CHO
                     C2H3OH           C2H2OH           CH2CO
                     HCCO             CH3CO3H          CH3CO3
                     CH3CO2           C3H8             IC3H7
                     IC3H7O2          IC3H7O           C3H6
                     C3H5-A           C3H5-S           C3H5-T
                     C3H5O            CH3CHCHO         C3H6OH1-2
                     CH3CHCO          AC3H5OOH         C3H6OH2-1
                     SC3H5OH          CH2CCH2OH        C3H4-P
                     C3H4-A           C3H3             SC3H4OH
                     C3H3O            C3H3O2H          C2HCHO
                     C2H5CHO          C2H5CO           CH2CH2CHO
                     C2H3CHO          C2H3CO           CH3COCH3
                     CH3COCH2         CH3COCH2O2       CH3COCH2O
                     C3KET21          IC4H10           IC4H9
                     TC4H9            TC4H9O           IC4H9O
                     IC4H8O           IC3H7CHO         IC3H7CO
                     IC3H6CHO         TC3H6CHO         IC3H5CHO
                     TC3H6O2CHO       IC3H5O2HCHO      TC3H6O2HCO
                     TC3H6OCHO        IC3H6CO          IC3H5CO
                     IC3H4CHO-A       SC4H7OH-I        IC4H9O2
                     TC4H9O2          IC4H8O2H-T       TC4H8O2H-I
                     IC4KETII         IC4H7OOH         TC4H9O2H
                     IC4H8            IC4H7            IC4H7-I1
                     IC4H7O           IC4H7OH          IC4H6OH
                     IC3H5OCH2        C4H8-1           C4H8-2
                     C4H71-2          C4H71-3          C4H71-4
                     C4H72-2          C4H72-2O2        C4H71-2O2
                     C4H6             C4H612           C4H6-2
                     C4H5-I           C4H5-N           C4H5-2
                     C4H4             C4H3-I           C4H3-N
                     C4H2             CH2CHCHCHO       H2C4O
                     C2H5COCH2        CH2CH2COCH3      CH3CHCOCH3
                     C2H3COCH3        CH3CHOOCOCH3     CH2CHOOHCOCH3
                     AC5H9O-A2        NEOC5H12         NEOC5H11
                     NEOC5H11O2H      NEOC5H11O2       NEOC5H11O
                     NEOC5H10OOH      NEO-C5H10O       NEOC5H10OOH-O2
                     NEOC5KET         NEOC5KETOX       C5H81-3
                     AC5H9O-C         AC5H10           AC5H9-A2
                     AC5H9-C          AC5H9-D          B2E2M1OJ
                     B13DE2M          B13DE2MJ         TC4H8CHO
                     O2C4H8CHO        O2HC4H8CO        CVCCVCCJ
                     CH3COOH          IC6D4            IC6D1-4
                     IC6D3-2          IC6D4-2          IC6D4-3
                     IC6D13           TC4H9CHO         TC4H9CO
                     XC6D1            XC6D1-3          C-C6H4
                     C6H2             C6H6             FULVENE
                     C6H5             C6H5OH           C6H5O
                     C5H6             C5H5             CYC5H71-3
                     C5H5OH           C5H5O            C5H4OH
                     C5H4O            CJVCCVCCVO       CJVCCVO
                     C6H5CH3          C6H5CH2          C6H5C2H5
                     C6H5CHCH3        C6H5C2H3         C6H5CHCH
                     C5H5CH3-1        C5H5CH3-2        C5H4CH3
                     C5H5CH2          C5H5CH2-1        C5H5CH2-2
                     NAPHOH           C7H6             C7H5
                     IND              C5H5CH3          C9H7
                     NAPH             NAPH-            NAPHV
                     NAPHO            C6H4C2H3         C6H5C2H
                     C6H5CH2CCH       C6H6O-24         C6H6O-25
                     C6H6O-B1         IC8-1R           IC8-4R
                     IC8-5R           IC8D3-5R         IC8D4-5R
                     IC8D4-5OR        IC8-1O2R         IC8-4O2R
                     IC8-5O2R         IC8OOH1-3R       IC8OOH1-4R
                     IC8OOH4-1R       IC8OOH5-3R       IC8O1-3
                     IC8O1-4          IC8O3-5          IC8OOH4-1O2R
                     IC8OOH5-3O2R     IC8KET5-3        IC8D4-5OOH
                     IC8Q14-3R        IC8Q35-1R        IC8KET5-3O
                     IC8O13-5OOH      IC8O34-1OOH      I24C7-2R
                     I24C7D1          I24C7D1-3R       I24C7D2
                     I24C7D2-4OR      I24C7D2-4R       IC6D2Y4
                     IC6D3-2R         NEC7-4R          NEC7D3
                     NEC7D4           NEC7Y4           I24C7D1-4R
                     IC8D4-1R         IC8D3-1R         NEC7D4-3R
                     I24C7D13-1AR     I24C7D14-3R      IC6D134
                     IC6D134-1AR      I24C7D13-5OR     IC6D13-4R
                     I24C7D13Y5       I24C7D13Y5-5R    I24C7D13-1AOR
                     IC6D34-2R        IC6D34-2OR       NC5D12Y4
                     NC5D12Y4-5R      I24C7D13Y1A      I24C7D13Y1A-1AR
                     IC6D1Y4-3R       IC6D1Y4-3OR      I24C7D1-1AR
                     IC6D13-1AR       I24C7D14         I24C7D2-5R
                     IC6D13-5R        IC6D24           NC5D124
                     NC5D124-5R       NEC7-5R          NEC7D3-1R
                     NEC7D4-1R        NEC7D4-3OR       IC6D14
                     XC6D13           XC6D13-1AR       TC4H9CO3
                     TC4H9CO3H        IC6D1Y4-3""",
          reactions='all',
          transport='Mix',
          initial_state=state(temperature=300.0, pressure=OneAtm))

#-------------------------------------------------------------------------------
# Species data
#-------------------------------------------------------------------------------

species(name='HMN',
        atoms='C:16 H:34',
        thermo=(NASA([300.00, 2024.00],
                     [-8.37696316E+00,  2.13245463E-01, -1.31884616E-04,
                       3.84365627E-08, -4.25373059E-12, -5.26330924E+04,
                       7.14465786E+01]),
                NASA([2024.00, 5000.00],
                     [ 5.22486770E+01,  8.16078012E-02, -2.99892662E-05,
                       4.90297020E-09, -2.95324629E-13, -7.35293909E+04,
                      -2.56289076E+02])),
        transport=gas_transport(geom='nonlinear',
                                diam=8.35,
                                well_depth=650.0,
                                rot_relax=1.0))

species(name='X1C11H23',
        atoms='C:11 H:23',
        thermo=(NASA([300.00, 1378.00],
                     [-1.87511112E+00,  1.29094332E-01, -7.70801254E-05,
                       2.35709064E-08, -3.35218382E-12, -1.67320028E+04,
                       4.25297184E+01]),
                NASA([1378.00, 5000.00],
                     [ 3.71880121E+01,  4.94705649E-02, -1.71638385E-05,
                       2.69087118E-09, -1.57199838E-13, -3.15759712E+04,
                      -1.71667286E+02])),
        transport=gas_transport(geom='nonlinear',
                                diam=6.8,
                                well_depth=754.2,
                                polar=21.03,
                                rot_relax=1.0),
        note='-THERM')

species(name='X4C11H23',
        atoms='C:11 H:23',
        thermo=(NASA([300.00, 1377.00],
                     [ 1.46368735E+01,  5.05825542E-02,  3.52430855E-05,
                      -3.20324750E-08,  5.09526764E-12, -1.97917270E+04,
                      -3.62920989E+01]),
                NASA([1377.00, 5000.00],
                     [ 2.63645086E+01,  7.57351705E-02, -3.01021468E-05,
                       5.11463713E-09, -3.14503832E-13, -3.09478426E+04,
                      -1.21206694E+02])),
        transport=gas_transport(geom='nonlinear',
                                diam=6.8,
                                well_depth=754.2,
                                polar=21.03,
                                rot_relax=1.0),
        note='-THERM')

species(name='XC12H26',
        atoms='C:12 H:26',
        thermo=(NASA([300.00, 1364.00],
                     [-4.05534916E+00,  1.50038843E-01, -8.46686261E-05,
                       2.16425323E-08, -2.25769609E-12, -4.20757098E+04,
                       4.67903325E+01]),
                NASA([1364.00, 5000.00],
                     [ 4.55055747E+01,  5.31746479E-02, -1.86770758E-05,
                       2.95272192E-09, -1.73519451E-13, -6.11863144E+04,
                      -2.26208678E+02])),
        transport=gas_transport(geom='nonlinear',
                                diam=7.12,
                                well_depth=833.78,
                                polar=22.75,
                                rot_relax=1.0),
        note='-THERM')

species(name='X1C12H25',
        atoms='C:12 H:25',
        thermo=(NASA([300.00, 1363.00],
                     [-3.70522277E+00,  1.46540481E-01, -8.33020948E-05,
                       2.14499530E-08, -2.24545176E-12, -1.81057657E+04,
                       4.99313924E+01]),
                NASA([1363.00, 5000.00],
                     [ 4.50025337E+01,  5.10135375E-02, -1.79237157E-05,
                       2.83438595E-09, -1.66601539E-13, -3.68371583E+04,
                      -2.18221109E+02])),
        transport=gas_transport(geom='nonlinear',
                                diam=7.12,
                                well_depth=833.78,
                                polar=22.75,
                                rot_relax=1.0),
        note='-THERM')

species(name='X2C12H25',
        atoms='C:12 H:25',
        thermo=(NASA([300.00, 1683.00],
                     [-2.45186706E+00,  1.35928950E-01, -6.29519848E-05,
                       5.64168120E-09,  2.13609307E-12, -1.97090370E+04,
                       4.45547018E+01]),
                NASA([1683.00, 5000.00],
                     [ 3.67200814E+01,  6.12791989E-02, -2.24016651E-05,
                       3.64929367E-09, -2.19247477E-13, -3.39917332E+04,
                      -1.70331042E+02])),
        transport=gas_transport(geom='nonlinear',
                                diam=7.12,
                                well_depth=833.78,
                                polar=22.75,
                                rot_relax=1.0),
        note='-THERM')

species(name='X3C12H25',
        atoms='C:12 H:25',
        thermo=(NASA([300.00, 1677.00],
                     [-1.08126963E+00,  1.28819092E-01, -5.19961860E-05,
                      -9.81839395E-10,  3.53441810E-12, -2.14210513E+04,
                       3.77043178E+01]),
                NASA([1677.00, 5000.00],
                     [ 3.64367682E+01,  6.17954761E-02, -2.26503462E-05,
                       3.69628975E-09, -2.22340928E-13, -3.55112679E+04,
                      -1.69650864E+02])),
        transport=gas_transport(geom='nonlinear',
                                diam=7.12,
                                well_depth=833.78,
                                polar=22.75,
                                rot_relax=1.0),
        note='-THERM')

species(name='X4C12H25',
        atoms='C:12 H:25',
        thermo=(NASA([300.00, 1363.00],
                     [-3.70522277E+00,  1.46540481E-01, -8.33020948E-05,
                       2.14499530E-08, -2.24545176E-12, -1.88606726E+04,
                       4.74502651E+01]),
                NASA([1363.00, 5000.00],
                     [ 4.50025337E+01,  5.10135375E-02, -1.79237157E-05,
                       2.83438595E-09, -1.66601539E-13, -3.75920652E+04,
                      -2.20702236E+02])),
        transport=gas_transport(geom='nonlinear',
                                diam=7.12,
                                well_depth=833.78,
                                polar=22.75,
                                rot_relax=1.0),
        note='-THERM')

species(name='X3C12H25O',
        atoms='C:12 H:25 O:1',
        thermo=(NASA([300.00, 1374.00],
                     [ 2.09753905E+01,  4.68438730E-02,  5.24685789E-05,
                      -4.40630610E-08,  7.49839184E-12, -4.08994805E+04,
                      -6.74142013E+01]),
                NASA([1374.00, 5000.00],
                     [ 3.48869283E+01,  7.94068734E-02, -3.18273898E-05,
                       5.44068741E-09, -3.36064935E-13, -5.43007609E+04,
                      -1.68925783E+02])),
        transport=gas_transport(geom='nonlinear',
                                diam=7.12,
                                well_depth=833.78,
                                polar=22.75,
                                rot_relax=1.0),
        note='-THERM')

species(name='X4C12H25O',
        atoms='C:12 H:25 O:1',
        thermo=(NASA([300.00, 2025.00],
                     [-3.46140771E+00,  1.56342818E-01, -9.61048539E-05,
                       2.77974992E-08, -3.04807937E-12, -3.55435720E+04,
                       4.67291917E+01]),
                NASA([2025.00, 5000.00],
                     [ 4.06788599E+01,  6.07384244E-02, -2.23803061E-05,
                       3.66413168E-09, -2.20878739E-13, -5.07747111E+04,
                      -1.91970133E+02])),
        transport=gas_transport(geom='nonlinear',
                                diam=7.12,
                                well_depth=833.78,
                                polar=22.75,
                                rot_relax=1.0),
        note='-THERM')

species(name='XC12H25O2-1',
        atoms='C:12 H:25 O:2',
        thermo=(NASA([300.00, 1366.00],
                     [-2.23373520E+00,  1.56127114E-01, -9.30613145E-05,
                       2.63112187E-08, -3.20680391E-12, -3.62513302E+04,
                       4.64951405E+01]),
                NASA([1366.00, 5000.00],
                     [ 4.95654091E+01,  5.20933787E-02, -1.83585304E-05,
                       2.90871468E-09, -1.71189802E-13, -5.59345403E+04,
                      -2.37820940E+02])),
        transport=gas_transport(geom='nonlinear',
                                diam=7.06,
                                well_depth=789.16,
                                polar=22.75,
                                rot_relax=1.0),
        note='-THERM')

species(name='XC12H25O2-2',
        atoms='C:12 H:25 O:2',
        thermo=(NASA([300.00, 1370.00],
                     [-1.56892450E+00,  1.56967381E-01, -9.66090759E-05,
                       2.89107335E-08, -3.78343039E-12, -3.77286595E+04,
                       4.03581121E+01]),
                NASA([1370.00, 5000.00],
                     [ 5.00756850E+01,  5.12808052E-02, -1.80854413E-05,
                       2.86661206E-09, -1.68752441E-13, -5.71564577E+04,
                      -2.42408913E+02])),
        transport=gas_transport(geom='nonlinear',
                                diam=7.06,
                                well_depth=789.16,
                                polar=22.75,
                                rot_relax=1.0),
        note='-THERM')

species(name='XC12H25O2-3',
        atoms='C:12 H:25 O:2',
        thermo=(NASA([300.00, 1365.00],
                     [-1.00723229E+00,  1.53166639E-01, -9.08263446E-05,
                       2.57380123E-08, -3.22486411E-12, -3.99514302E+04,
                       3.49205494E+01]),
                NASA([1365.00, 5000.00],
                     [ 4.98656771E+01,  5.15977738E-02, -1.82273935E-05,
                       2.89232018E-09, -1.70397811E-13, -5.93841980E+04,
                      -2.44602124E+02])),
        transport=gas_transport(geom='nonlinear',
                                diam=7.06,
                                well_depth=789.16,
                                polar=22.75,
                                rot_relax=1.0),
        note='-THERM')

species(name='XC12OOH1-2',
        atoms='C:12 H:25 O:2',
        thermo=(NASA([300.00, 2027.00],
                     [-3.12436504E+00,  1.59205058E-01, -9.85225021E-05,
                       2.88729643E-08, -3.22956783E-12, -3.03921382E+04,
                       5.32585638E+01]),
                NASA([2027.00, 5000.00],
                     [ 4.15030882E+01,  6.18423084E-02, -2.26878635E-05,
                       3.70425855E-09, -2.22886647E-13, -4.57151647E+04,
                      -1.87804299E+02])),
        transport=gas_transport(geom='nonlinear',
                                diam=7.06,
                                well_depth=789.16,
                                polar=22.75,
                                rot_relax=1.0),
        note='-THERM')

species(name='XC12OOH1-3',
        atoms='C:12 H:25 O:2',
        thermo=(NASA([300.00, 1684.00],
                     [ 1.44379036E-01,  1.39962803E-01, -6.41613674E-05,
                       5.03101700E-09,  2.41045590E-12, -3.15515168E+04,
                       3.90006571E+01]),
                NASA([1684.00, 5000.00],
                     [ 4.11521589E+01,  6.24695227E-02, -2.29861127E-05,
                       3.76012354E-09, -2.26540525E-13, -4.65763363E+04,
                      -1.86203198E+02])),
        transport=gas_transport(geom='nonlinear',
                                diam=7.06,
                                well_depth=789.16,
                                polar=22.75,
                                rot_relax=1.0),
        note='-THERM')

species(name='XC12OOH2-1',
        atoms='C:12 H:25 O:2',
        thermo=(NASA([300.00, 1373.00],
                     [-2.06555079E+00,  1.59908629E-01, -1.01545057E-04,
                       3.19010508E-08, -4.38330904E-12, -3.04363029E+04,
                       4.55144488E+01]),
                NASA([1373.00, 5000.00],
                     [ 5.00253232E+01,  5.10734328E-02, -1.79580342E-05,
                       2.84086386E-09, -1.67014757E-13, -4.97850670E+04,
                      -2.38858592E+02])),
        transport=gas_transport(geom='nonlinear',
                                diam=7.06,
                                well_depth=789.16,
                                polar=22.75,
                                rot_relax=1.0),
        note='-THERM')

species(name='XC12OOH2-2P',
        atoms='C:12 H:25 O:2',
        thermo=(NASA([300.00, 2034.00],
                     [-2.61225442E+00,  1.60349893E-01, -1.01988988E-04,
                       3.10915518E-08, -3.66291657E-12, -3.18375683E+04,
                       4.79000195E+01]),
                NASA([2034.00, 5000.00],
                     [ 4.22558214E+01,  6.04482644E-02, -2.20278048E-05,
                       3.58150786E-09, -2.14909808E-13, -4.70273207E+04,
                      -1.93688852E+02])),
        transport=gas_transport(geom='nonlinear',
                                diam=7.06,
                                well_depth=789.16,
                                polar=22.75,
                                rot_relax=1.0),
        note='-THERM')

species(name='XC12OOH3-1',
        atoms='C:12 H:25 O:2',
        thermo=(NASA([300.00, 1368.00],
                     [-1.48717835E+00,  1.56014066E-01, -9.55857558E-05,
                       2.85830405E-08, -3.78218438E-12, -3.26611718E+04,
                       3.98773487E+01]),
                NASA([1368.00, 5000.00],
                     [ 4.98221012E+01,  5.13739252E-02, -1.80922085E-05,
                       2.86516102E-09, -1.68570657E-13, -5.20149796E+04,
                      -2.41213356E+02])),
        transport=gas_transport(geom='nonlinear',
                                diam=7.06,
                                well_depth=789.16,
                                polar=22.75,
                                rot_relax=1.0),
        note='-THERM')

species(name='XC12H24-3',
        atoms='C:12 H:24',
        thermo=(NASA([300.00, 1382.00],
                     [-5.86999620E+00,  1.51663634E-01, -9.85684128E-05,
                       3.29837340E-08, -4.90394808E-12, -2.84405291E+04,
                       5.59391811E+01]),
                NASA([1382.00, 5000.00],
                     [ 4.08088941E+01,  5.14881571E-02, -1.78635938E-05,
                       2.80085009E-09, -1.63645305E-13, -4.55482519E+04,
                      -1.98003670E+02])),
        transport=gas_transport(geom='nonlinear',
                                diam=7.12,
                                well_depth=833.78,
                                polar=22.75,
                                rot_relax=1.0),
        note='-THERM')

species(name='XC12OOH1-2O2',
        atoms='C:12 H:25 O:4',
        thermo=(NASA([300.00, 1374.00],
                     [-6.17738734E-01,  1.69567138E-01, -1.11339394E-04,
                       3.67244253E-08, -5.32867409E-12, -4.85776248E+04,
                       4.21935273E+01]),
                NASA([1374.00, 5000.00],
                     [ 5.46859528E+01,  5.19701114E-02, -1.83093831E-05,
                       2.90019645E-09, -1.70654692E-13, -6.89125115E+04,
                      -2.58988388E+02])),
        transport=gas_transport(geom='nonlinear',
                                diam=7.06,
                                well_depth=789.16,
                                polar=22.75,
                                rot_relax=1.0),
        note='-THERM')

species(name='XC12OOH1-3O2',
        atoms='C:12 H:25 O:4',
        thermo=(NASA([300.00, 1370.00],
                     [-8.29690332E-03,  1.65550954E-01, -1.05233915E-04,
                       3.33481804E-08, -4.71928120E-12, -5.08075322E+04,
                       3.79144477E+01]),
                NASA([1370.00, 5000.00],
                     [ 5.44386201E+01,  5.23602156E-02, -1.84853544E-05,
                       2.93210032E-09, -1.72695712E-13, -7.11311157E+04,
                      -2.59603845E+02])),
        transport=gas_transport(geom='nonlinear',
                                diam=7.06,
                                well_depth=789.16,
                                polar=22.75,
                                rot_relax=1.0),
        note='-THERM')

species(name='XC12OOH2-1O2',
        atoms='C:12 H:25 O:4',
        thermo=(NASA([300.00, 1374.00],
                     [-6.17738734E-01,  1.69567138E-01, -1.11339394E-04,
                       3.67244253E-08, -5.32867409E-12, -4.85776248E+04,
                       4.21935273E+01]),
                NASA([1374.00, 5000.00],
                     [ 5.46859528E+01,  5.19701114E-02, -1.83093831E-05,
                       2.90019645E-09, -1.70654692E-13, -6.89125115E+04,
                      -2.58988388E+02])),
        transport=gas_transport(geom='nonlinear',
                                diam=7.06,
                                well_depth=789.16,
                                polar=22.75,
                                rot_relax=1.0),
        note='-THERM')

species(name='XC12OOH2-2PO2',
        atoms='C:12 H:25 O:4',
        thermo=(NASA([300.00, 1375.00],
                     [-4.63961952E-01,  1.72316089E-01, -1.16884446E-04,
                       3.97791801E-08, -5.80974136E-12, -4.99707446E+04,
                       3.77940969E+01]),
                NASA([1375.00, 5000.00],
                     [ 5.53906477E+01,  5.04635668E-02, -1.75959262E-05,
                       2.76919666E-09, -1.62249323E-13, -7.00978961E+04,
                      -2.65110635E+02])),
        transport=gas_transport(geom='nonlinear',
                                diam=7.06,
                                well_depth=789.16,
                                polar=22.75,
                                rot_relax=1.0),
        note='-THERM')

species(name='XC12OOH3-1O2',
        atoms='C:12 H:25 O:4',
        thermo=(NASA([300.00, 1370.00],
                     [-8.29690332E-03,  1.65550954E-01, -1.05233915E-04,
                       3.33481804E-08, -4.71928120E-12, -5.08075322E+04,
                       3.79144477E+01]),
                NASA([1370.00, 5000.00],
                     [ 5.44386201E+01,  5.23602156E-02, -1.84853544E-05,
                       2.93210032E-09, -1.72695712E-13, -7.11311157E+04,
                      -2.59603845E+02])),
        transport=gas_transport(geom='nonlinear',
                                diam=7.06,
                                well_depth=789.16,
                                polar=22.75,
                                rot_relax=1.0),
        note='-THERM')

species(name='XC12CYO1-2',
        atoms='C:12 H:24 O:1',
        thermo=(NASA([300.00, 1388.00],
                     [-9.01751405E+00,  1.67559162E-01, -1.09892781E-04,
                       3.47124388E-08, -4.38513255E-12, -4.25358435E+04,
                       7.21018122E+01]),
                NASA([1388.00, 5000.00],
                     [ 4.47205386E+01,  5.12092704E-02, -1.77884661E-05,
                       2.79175188E-09, -1.63235639E-13, -6.18756126E+04,
                      -2.19419166E+02])),
        transport=gas_transport(geom='nonlinear',
                                diam=7.12,
                                well_depth=833.78,
                                polar=22.75,
                                rot_relax=1.0),
        note='-THERM')

species(name='XC12CYO1-3',
        atoms='C:12 H:24 O:1',
        thermo=(NASA([300.00, 1520.00],
                     [-8.74325138E+00,  1.59609162E-01, -9.23429709E-05,
                       2.18689158E-08, -9.71881736E-13, -5.41218900E+04,
                       7.05950598E+01]),
                NASA([1520.00, 5000.00],
                     [ 4.08605915E+01,  5.60638112E-02, -1.86396302E-05,
                       2.84254355E-09, -1.62983079E-13, -7.21036505E+04,
                      -1.99386097E+02])),
        transport=gas_transport(geom='nonlinear',
                                diam=7.12,
                                well_depth=833.78,
                                polar=22.75,
                                rot_relax=1.0),
        note='-THERM')

species(name='XC12CYO2-2P',
        atoms='C:12 H:24 O:1',
        thermo=(NASA([300.00, 1393.00],