#---------------------------------------------------------------------------
#  CTI File converted from Solution Object
#---------------------------------------------------------------------------

units(length = "cm", time = "s", quantity = "mol", act_energy = "cal/mol")

ideal_gas(name = "gas", 
     elements = "C H O N", 
     species = """ HMN X1C11H23 XC12H26 X1C12H25 X2C12H25 X3C12H25 
                 X4C12H25 XC12H25O2-1 XC12H25O2-2 XC12OOH1-2 XC12OOH1-3 XC12OOH2-1 
                 XC12OOH2-2P XC12H24-3 XC12OOH2-2PO2 XC12H23-42 X1C11H22 
                 X2C11H22 XC11H21 HMN-R2 HMN-R3 HMN-R5 HMN-R6 CC15H31 
                 FC12H25 IC9-R1 I24C7D13 N2 H2 H O2 O H2O OH OHV 
                 H2O2 HO2 CO CO2 CH4 CH3 CH CH3O2H CH3O2 CH3OH CH3O 
                 CH2OH CH2O HCO C2H6 C2H5 C2H4 C2H3 C2H2 C2H CH3CHO CH2CO 
                 HCCO C3H6 C3H5-A C3H5-T AC3H5OOH IC4H8O IC3H5CO 
                 TC4H9O2 TC4H8O2H-I IC4H7OOH IC4H7 IC4H7-I1 NEOC5H11 
                 NEOC5H11O2 NEOC5H10OOH NEOC5H10OOH-O2 NEOC5KET 
                 NEOC5KETOX IC6D13 IC8-1R IC8-4R IC8-5R IC8D3-5R I24C7D1 
                 NEC7D3 NEC7D4 NEC7Y4 IC8D4-1R C16H33(L1) C7H13(L1) 
                 C7H15(L1) C8H16O(L1) C8H17O2(L1) C5H9O(L1) C5H10O(L1) 
                 C4H8(L1) C4H6O(L1) C4H7O(L1) C4H9(L1) C3H6O(L1) 
                 C3H4(L1) C3H4O(L1) C3H5O(L1) C2H3O(L1) C2H5O(L1) CH2(L1) 
                 C8H16(L1) C16H33O2(L1) C12H24O3(L1) C12H24O(L1) """, 
     reactions = "all", 
     transport = "Mix", 
     initial_state = state(temperature = 3.000000E+02, pressure= 1.013250E+05)   )       

#---------------------------------------------------------------------------
#  Species data
#---------------------------------------------------------------------------

species(name = "HMN",
    atoms = "C:16  H:34", 
    thermo = (
       NASA(   [300.0, 2024.0], [-8.376963160e+00, 2.132454630e-01,
                -1.318846160e-04, 3.843656270e-08,
                -4.253730590e-12,
                -5.263309240e+04, 7.144657860e+01]  ),
       NASA(   [2024.0, 5000.0], [5.224867700e+01, 8.160780120e-02,
                -2.998926620e-05, 4.902970200e-09,
                -2.953246290e-13,
                -7.352939090e+04,
                -2.562890760e+02]  )
               ),
    transport = gas_transport(
                   geom = "nonlinear",
                   diam = 8.35, 
                   well_depth = 650.0, 
                   polar = 0.0, 
                   rot_relax = 1.0) 
        )

species(name = "X1C11H23",
    atoms = "C:11  H:23", 
    thermo = (
       NASA(   [300.0, 1378.0], [-1.875111120e+00, 1.290943320e-01,
                -7.708012540e-05, 2.357090640e-08,
                -3.352183820e-12,
                -1.673200280e+04, 4.252971840e+01]  ),
       NASA(   [1378.0, 5000.0], [3.718801210e+01, 4.947056490e-02,
                -1.716383850e-05, 2.690871180e-09,
                -1.571998380e-13,
                -3.157597120e+04,
                -1.716672860e+02]  )
               ),
    transport = gas_transport(
                   geom = "nonlinear",
                   diam = 6.800000000000001, 
                   well_depth = 754.2, 
                   polar = 21.030000000000005, 
                   rot_relax = 1.0) 
        )

species(name = "XC12H26",
    atoms = "C:12  H:26", 
    thermo = (
       NASA(   [300.0, 1364.0], [-4.055349160e+00, 1.500388430e-01,
                -8.466862610e-05, 2.164253230e-08,
                -2.257696090e-12,
                -4.207570980e+04, 4.679033250e+01]  ),
       NASA(   [1364.0, 5000.0], [4.550557470e+01, 5.317464790e-02,
                -1.867707580e-05, 2.952721920e-09,
                -1.735194510e-13,
                -6.118631440e+04,
                -2.262086780e+02]  )
               ),
    transport = gas_transport(
                   geom = "nonlinear",
                   diam = 7.12, 
                   well_depth = 833.78, 
                   polar = 22.750000000000004, 
                   rot_relax = 1.0) 
        )

species(name = "X1C12H25",
    atoms = "C:12  H:25", 
    thermo = (
       NASA(   [300.0, 1363.0], [-3.705222770e+00, 1.465404810e-01,
                -8.330209480e-05, 2.144995300e-08,
                -2.245451760e-12,
                -1.810576570e+04, 4.993139240e+01]  ),
       NASA(   [1363.0, 5000.0], [4.500253370e+01, 5.101353750e-02,
                -1.792371570e-05, 2.834385950e-09,
                -1.666015390e-13,
                -3.683715830e+04,
                -2.182211090e+02]  )
               ),
    transport = gas_transport(
                   geom = "nonlinear",
                   diam = 7.12, 
                   well_depth = 833.78, 
                   polar = 22.750000000000004, 
                   rot_relax = 1.0) 
        )

species(name = "X2C12H25",
    atoms = "C:12  H:25", 
    thermo = (
       NASA(   [300.0, 1683.0], [-2.451867060e+00, 1.359289500e-01,
                -6.295198480e-05, 5.641681200e-09,
                2.136093070e-12, -1.970903700e+04,
                4.455470180e+01]  ),
       NASA(   [1683.0, 5000.0], [3.672008140e+01, 6.127919890e-02,
                -2.240166510e-05, 3.649293670e-09,
                -2.192474770e-13,
                -3.399173320e+04,
                -1.703310420e+02]  )
               ),
    transport = gas_transport(
                   geom = "nonlinear",
                   diam = 7.12, 
                   well_depth = 833.78, 
                   polar = 22.750000000000004, 
                   rot_relax = 1.0) 
        )

species(name = "X3C12H25",
    atoms = "C:12  H:25", 
    thermo = (
       NASA(   [300.0, 1677.0], [-1.081269630e+00, 1.288190920e-01,
                -5.199618600e-05,
                -9.818393950e-10, 3.534418100e-12,
                -2.142105130e+04, 3.770431780e+01]  ),
       NASA(   [1677.0, 5000.0], [3.643676820e+01, 6.179547610e-02,
                -2.265034620e-05, 3.696289750e-09,
                -2.223409280e-13,
                -3.551126790e+04,
                -1.696508640e+02]  )
               ),
    transport = gas_transport(
                   geom = "nonlinear",
                   diam = 7.12, 
                   well_depth = 833.78, 
                   polar = 22.750000000000004, 
                   rot_relax = 1.0) 
        )

species(name = "X4C12H25",
    atoms = "C:12  H:25", 
    thermo = (
       NASA(   [300.0, 1363.0], [-3.705222770e+00, 1.465404810e-01,
                -8.330209480e-05, 2.144995300e-08,
                -2.245451760e-12,
                -1.886067260e+04, 4.745026510e+01]  ),
       NASA(   [1363.0, 5000.0], [4.500253370e+01, 5.101353750e-02,
                -1.792371570e-05, 2.834385950e-09,
                -1.666015390e-13,
                -3.759206520e+04,
                -2.207022360e+02]  )
               ),
    transport = gas_transport(
                   geom = "nonlinear",
                   diam = 7.12, 
                   well_depth = 833.78, 
                   polar = 22.750000000000004, 
                   rot_relax = 1.0) 
        )

species(name = "XC12H25O2-1",
    atoms = "C:12  H:25  O:2", 
    thermo = (
       NASA(   [300.0, 1366.0], [-2.233735200e+00, 1.561271140e-01,
                -9.306131450e-05, 2.631121870e-08,
                -3.206803910e-12,
                -3.625133020e+04, 4.649514050e+01]  ),
       NASA(   [1366.0, 5000.0], [4.956540910e+01, 5.209337870e-02,
                -1.835853040e-05, 2.908714680e-09,
                -1.711898020e-13,
                -5.593454030e+04,
                -2.378209400e+02]  )
               ),
    transport = gas_transport(
                   geom = "nonlinear",
                   diam = 7.06, 
                   well_depth = 789.16, 
                   polar = 22.750000000000004, 
                   rot_relax = 1.0) 
        )

species(name = "XC12H25O2-2",
    atoms = "C:12  H:25  O:2", 
    thermo = (
       NASA(   [300.0, 1370.0], [-1.568924500e+00, 1.569673810e-01,
                -9.660907590e-05, 2.891073350e-08,
                -3.783430390e-12,
                -3.772865950e+04, 4.035811210e+01]  ),
       NASA(   [1370.0, 5000.0], [5.007568500e+01, 5.128080520e-02,
                -1.808544130e-05, 2.866612060e-09,
                -1.687524410e-13,
                -5.715645770e+04,
                -2.424089130e+02]  )
               ),
    transport = gas_transport(
                   geom = "nonlinear",
                   diam = 7.06, 
                   well_depth = 789.16, 
                   polar = 22.750000000000004, 
                   rot_relax = 1.0) 
        )

species(name = "XC12OOH1-2",
    atoms = "C:12  H:25  O:2", 
    thermo = (
       NASA(   [300.0, 2027.0], [-3.124365040e+00, 1.592050580e-01,
                -9.852250210e-05, 2.887296430e-08,
                -3.229567830e-12,
                -3.039213820e+04, 5.325856380e+01]  ),
       NASA(   [2027.0, 5000.0], [4.150308820e+01, 6.184230840e-02,
                -2.268786350e-05, 3.704258550e-09,
                -2.228866470e-13,
                -4.571516470e+04,
                -1.878042990e+02]  )
               ),
    transport = gas_transport(
                   geom = "nonlinear",
                   diam = 7.06, 
                   well_depth = 789.16, 
                   polar = 22.750000000000004, 
                   rot_relax = 1.0) 
        )

species(name = "XC12OOH1-3",
    atoms = "C:12  H:25  O:2", 
    thermo = (
       NASA(   [300.0, 1684.0], [1.443790360e-01, 1.399628030e-01,
                -6.416136740e-05, 5.031017000e-09,
                2.410455900e-12, -3.155151680e+04,
                3.900065710e+01]  ),
       NASA(   [1684.0, 5000.0], [4.115215890e+01, 6.246952270e-02,
                -2.298611270e-05, 3.760123540e-09,
                -2.265405250e-13,
                -4.657633630e+04,
                -1.862031980e+02]  )
               ),
    transport = gas_transport(
                   geom = "nonlinear",
                   diam = 7.06, 
                   well_depth = 789.16, 
                   polar = 22.750000000000004, 
                   rot_relax = 1.0) 
        )

species(name = "XC12OOH2-1",
    atoms = "C:12  H:25  O:2", 
    thermo = (
       NASA(   [300.0, 1373.0], [-2.065550790e+00, 1.599086290e-01,
                -1.015450570e-04, 3.190105080e-08,
                -4.383309040e-12,
                -3.043630290e+04, 4.551444880e+01]  ),
       NASA(   [1373.0, 5000.0], [5.002532320e+01, 5.107343280e-02,
                -1.795803420e-05, 2.840863860e-09,
                -1.670147570e-13,
                -4.978506700e+04,
                -2.388585920e+02]  )
               ),
    transport = gas_transport(
                   geom = "nonlinear",
                   diam = 7.06, 
                   well_depth = 789.16, 
                   polar = 22.750000000000004, 
                   rot_relax = 1.0) 
        )

species(name = "XC12OOH2-2P",
    atoms = "C:12  H:25  O:2", 
    thermo = (
       NASA(   [300.0, 2034.0], [-2.612254420e+00, 1.603498930e-01,
                -1.019889880e-04, 3.109155180e-08,
                -3.662916570e-12,
                -3.183756830e+04, 4.790001950e+01]  ),
       NASA(   [2034.0, 5000.0], [4.225582140e+01, 6.044826440e-02,
                -2.202780480e-05, 3.581507860e-09,
                -2.149098080e-13,
                -4.702732070e+04,
                -1.936888520e+02]  )
               ),
    transport = gas_transport(
                   geom = "nonlinear",
                   diam = 7.06, 
                   well_depth = 789.16, 
                   polar = 22.750000000000004, 
                   rot_relax = 1.0) 
        )

species(name = "XC12H24-3",
    atoms = "C:12  H:24", 
    thermo = (
       NASA(   [300.0, 1382.0], [-5.869996200e+00, 1.516636340e-01,
                -9.856841280e-05, 3.298373400e-08,
                -4.903948080e-12,
                -2.844052910e+04, 5.593918110e+01]  ),
       NASA(   [1382.0, 5000.0], [4.080889410e+01, 5.148815710e-02,
                -1.786359380e-05, 2.800850090e-09,
                -1.636453050e-13,
                -4.554825190e+04,
                -1.980036700e+02]  )
               ),
    transport = gas_transport(
                   geom = "nonlinear",
                   diam = 7.12, 
                   well_depth = 833.78, 
                   polar = 22.750000000000004, 
                   rot_relax = 1.0) 
        )

species(name = "XC12OOH2-2PO2",
    atoms = "C:12  H:25  O:4", 
    thermo = (
       NASA(   [300.0, 1375.0], [-4.639619520e-01, 1.723160890e-01,
                -1.168844460e-04, 3.977918010e-08,
                -5.809741360e-12,
                -4.997074460e+04, 3.779409690e+01]  ),
       NASA(   [1375.0, 5000.0], [5.539064770e+01, 5.046356680e-02,
                -1.759592620e-05, 2.769196660e-09,
                -1.622493230e-13,
                -7.009789610e+04,
                -2.651106350e+02]  )
               ),
    transport = gas_transport(
                   geom = "nonlinear",
                   diam = 7.06, 
                   well_depth = 789.16, 
                   polar = 22.750000000000004, 
                   rot_relax = 1.0) 
        )

species(name = "XC12H23-42",
    atoms = "C:12  H:23", 
    thermo = (
       NASA(   [300.0, 1456.0], [1.346324060e+00, 1.085153390e-01,
                -1.144905620e-05,
                -3.278570370e-08, 1.181073190e-11,
                -1.375081830e+04, 2.361362220e+01]  ),
       NASA(   [1456.0, 5000.0], [4.829809240e+01, 4.521058870e-02,
                -1.630373790e-05, 2.622303800e-09,
                -1.559354340e-13,
                -3.413809390e+04,
                -2.440251270e+02]  )
               ),
    transport = gas_transport(
                   geom = "nonlinear",
                   diam = 7.12, 
                   well_depth = 833.78, 
                   polar = 22.750000000000004, 
                   rot_relax = 1.0) 
        )

species(name = "X1C11H22",
    atoms = "C:11  H:22", 
    thermo = (
       NASA(   [300.0, 1382.0], [-4.131442540e+00, 1.378985440e-01,
                -9.313664590e-05, 3.401231210e-08,
                -5.706102760e-12,
                -2.495936420e+04, 5.057822020e+01]  ),
       NASA(   [1382.0, 5000.0], [3.718200750e+01, 4.740867090e-02,
                -1.646461670e-05, 2.582945490e-09,
                -1.509638580e-13,
                -4.003805890e+04,
                -1.737463250e+02]  )
               ),
    transport = gas_transport(
                   geom = "nonlinear",
                   diam = 6.68, 
                   well_depth = 686.12, 
                   polar = 19.100000000000005, 
                   rot_relax = 1.0) 
        )

species(name = "X2C11H22",
    atoms = "C:11  H:22", 
    thermo = (
       NASA(   [300.0, 1685.0], [1.741697500e+00, 1.030116070e-01,
                -2.835073160e-05,
                -1.127140890e-08, 5.216552090e-12,
                -2.737409280e+04, 2.430632600e+01]  ),
       NASA(   [1685.0, 5000.0], [3.201707590e+01, 5.705283980e-02,
                -2.120029100e-05, 3.489303090e-09,
                -2.110775990e-13,
                -3.954968760e+04,
                -1.459361390e+02]  )
               ),
    transport = gas_transport(
                   geom = "nonlinear",
                   diam = 6.68, 
                   well_depth = 686.12, 
                   polar = 19.100000000000005, 
                   rot_relax = 1.0) 
        )

species(name = "XC11H21",
    atoms = "C:11  H:21", 
    thermo = (
       NASA(   [300.0, 1380.0], [-4.354006380e+00, 1.357097960e-01,
                -9.168786760e-05, 3.323792260e-08,
                -5.540337690e-12,
                -7.997811450e+03, 5.052353150e+01]  ),
       NASA(   [1380.0, 5000.0], [3.720731770e+01, 4.527950860e-02,
                -1.582840880e-05, 2.493934850e-09,
                -1.461997250e-13,
                -2.322374260e+04,
                -1.753560330e+02]  )
               ),
    transport = gas_transport(
                   geom = "nonlinear",
                   diam = 6.73, 
                   well_depth = 748.55, 
                   polar = 20.670000000000005, 
                   rot_relax = 1.0) 
        )

species(name = "HMN-R2",
    atoms = "C:16  H:33", 
    thermo = (
       NASA(   [300.0, 1678.0], [-3.593983500e+00, 1.820257380e-01,
                -8.180430050e-05, 4.797852230e-09,
                3.625891010e-12, -3.142565240e+04,
                5.370289640e+01]  ),
       NASA(   [1678.0, 5000.0], [5.048638690e+01, 8.071295130e-02,
                -2.970457280e-05, 4.860151360e-09,
                -2.928692000e-13,
                -5.128926750e+04,
                -2.435395950e+02]  )
               ),
    transport = gas_transport(
                   geom = "nonlinear",
                   diam = 8.35, 
                   well_depth = 650.0, 
                   polar = 0.0, 
                   rot_relax = 1.0) 
        )

species(name = "HMN-R3",
    atoms = "C:16  H:33", 
    thermo = (
       NASA(   [300.0, 2023.0], [-7.966078940e+00, 2.094806280e-01,
                -1.301655360e-04, 3.809184430e-08,
                -4.232504430e-12,
                -2.942713750e+04, 7.250991690e+01]  ),
       NASA(   [2023.0, 5000.0], [5.199634300e+01, 7.911834790e-02,
                -2.909227650e-05, 4.758676550e-09,
                -2.867440640e-13,
                -5.007629110e+04,
                -2.515751480e+02]  )
               ),
    transport = gas_transport(
                   geom = "nonlinear",
                   diam = 8.35, 
                   well_depth = 650.0, 
                   polar = 0.0, 
                   rot_relax = 1.0) 
        )

species(name = "HMN-R5",
    atoms = "C:16  H:33", 
    thermo = (
       NASA(   [300.0, 1672.0], [-2.294866360e+00, 1.751310620e-01,
                -7.090361270e-05,
                -2.015605950e-09, 5.108568750e-12,
                -3.237015000e+04, 4.788920150e+01]  ),
       NASA(   [1672.0, 5000.0], [5.055760870e+01, 8.063491940e-02,
                -2.968750330e-05, 4.859677200e-09,
                -2.929687350e-13,
                -5.218773430e+04,
                -2.441425570e+02]  )
               ),
    transport = gas_transport(
                   geom = "nonlinear",
                   diam = 8.35, 
                   well_depth = 650.0, 
                   polar = 0.0, 
                   rot_relax = 1.0) 
        )

species(name = "HMN-R6",
    atoms = "C:16  H:33", 
    thermo = (
       NASA(   [300.0, 2023.0], [-7.966078940e+00, 2.094806280e-01,
                -1.301655360e-04, 3.809184430e-08,
                -4.232504430e-12,
                -2.942713750e+04, 7.182043530e+01]  ),
       NASA(   [2023.0, 5000.0], [5.199634300e+01, 7.911834790e-02,
                -2.909227650e-05, 4.758676550e-09,
                -2.867440640e-13,
                -5.007629110e+04,
                -2.522646290e+02]  )
               ),
    transport = gas_transport(
                   geom = "nonlinear",
                   diam = 8.35, 
                   well_depth = 650.0, 
                   polar = 0.0, 
                   rot_relax = 1.0) 
        )

species(name = "CC15H31",
    atoms = "C:15  H:31", 
    thermo = (
       NASA(   [300.0, 1371.0], [2.727878980e+01, 3.455785930e-02,
                1.010628440e-04, -7.443125460e-08,
                1.280126980e-11, -3.277041930e+04,
                -8.987557790e+01]  ),
       NASA(   [1371.0, 5000.0], [4.053066420e+01, 9.999766620e-02,
                -4.042336120e-05, 6.952569140e-09,
                -4.314031160e-13,
                -4.996830530e+04,
                -2.005645730e+02]  )
               ),
    transport = gas_transport(
                   geom = "nonlinear",
                   diam = 7.46, 
                   well_depth = 977.66, 
                   polar = 28.41, 
                   rot_relax = 1.0) 
        )

species(name = "FC12H25",
    atoms = "C:12  H:25", 
    thermo = (
       NASA(   [300.0, 1363.0], [-3.704926360e+00, 1.465385710e-01,
                -8.329834050e-05, 2.144705940e-08,
                -2.244681460e-12,
                -1.735089010e+04, 4.993012990e+01]  ),
       NASA(   [1363.0, 5000.0], [4.500253370e+01, 5.101353750e-02,
                -1.792371570e-05, 2.834385950e-09,
                -1.666015390e-13,
                -3.608225550e+04,
                -2.182211250e+02]  )
               ),
    transport = gas_transport(
                   geom = "nonlinear",
                   diam = 7.12, 
                   well_depth = 833.78, 
                   polar = 22.750000000000004, 
                   rot_relax = 1.0) 
        )

species(name = "IC9-R1",
    atoms = "C:9  H:19", 
    thermo = (
       NASA(   [300.0, 1363.0], [2.184587280e+01, -4.270995810e-03,
                9.780839400e-05, -6.465017120e-08,
                1.103039340e-11, -1.265642990e+04,
                -7.191043370e+01]  ),
       NASA(   [1363.0, 5000.0], [2.704622530e+01, 5.880354390e-02,
                -2.412090170e-05, 4.192699670e-09,
                -2.622061680e-13,
                -2.419456880e+04,
                -1.305190710e+02]  )
               ),
    transport = gas_transport(
                   geom = "nonlinear",
                   diam = 6.4, 
                   well_depth = 652.84, 
                   polar = 17.36, 
                   rot_relax = 1.0) 
        )

species(name = "I24C7D13",
    atoms = "C:7  H:12", 
    thermo = (
       NASA(   [300.0, 1397.0], [-2.408199440e+00, 8.431296430e-02,
                -6.847788100e-05, 3.152849290e-08,
                -6.291669330e-12,
                -1.220569030e+03, 3.706764220e+01]  ),
       NASA(   [1397.0, 5000.0], [1.973562770e+01, 2.779286330e-02,
                -9.488331020e-06, 1.471015820e-09,
                -8.525408280e-14,
                -8.596720200e+03,
                -8.049696600e+01]  )
               ),
    transport = gas_transport(
                   geom = "nonlinear",
                   diam = 5.698, 
                   well_depth = 420.102, 
                   polar = 12.930000000000001, 
                   rot_relax = 1.0) 
        )

species(name = "N2",
    atoms = "N:2", 
    thermo = (
       NASA(   [200.0, 1000.0], [3.587600400e+00, -6.025471250e-04,
                8.983313280e-07, 7.549216010e-10,
                -7.074675720e-13,
                -1.051964560e+03, 2.738940360e+00]  ),
       NASA(   [1000.0, 6000.0], [2.952576370e+00, 1.396900400e-03,
                -4.926316030e-07, 7.860101950e-11,
                -4.607552040e-15,
                -9.245018380e+02, 5.871290100e+00]  )
               ),
    transport = gas_transport(
                   geom = "linear",
                   diam = 3.621, 
                   well_depth = 97.53, 
                   polar = 1.76, 
                   rot_relax = 4.0) 
        )

species(name = "H2",
    atoms = "H:2", 
    thermo = (
       NASA(   [200.0, 1000.0], [2.721136140e+00, 4.792141710e-03,
                -1.014822220e-05, 8.969367160e-09,
                -2.706630130e-12,
                -9.511467110e+02,
                -8.385212940e-01]  ),
       NASA(   [1000.0, 6000.0], [2.932865750e+00, 8.266080260e-04,
                -1.464023640e-07, 1.541004140e-11,
                -6.888048000e-16,
                -8.167484190e+02,
                -1.028306820e+00]  )
               ),
    transport = gas_transport(
                   geom = "linear",
                   diam = 2.9200000000000004, 
                   well_depth = 38.0, 
                   polar = 0.7900000000000001, 
                   rot_relax = 280.0) 
        )

species(name = "H",
    atoms = "H:1", 
    thermo = (
       NASA(   [200.0, 1000.0], [2.500000000e+00, -2.969035190e-15,
                8.236085410e-18, -9.309089260e-21,
                3.606033040e-24, 2.547366000e+04,
                -4.466828500e-01]  ),
       NASA(   [1000.0, 6000.0], [2.500000000e+00, 0.000000000e+00,
                0.000000000e+00, 0.000000000e+00,
                0.000000000e+00, 2.547366000e+04,
                -4.466828500e-01]  )
               ),
    transport = gas_transport(
                   geom = "atom",
                   diam = 2.05, 
                   well_depth = 145.0, 
                   polar = 0.0, 
                   rot_relax = 0.0) 
        )

species(name = "O2",
    atoms = "O:2", 
    thermo = (
       NASA(   [200.0, 1000.0], [3.654933020e+00, -1.917680640e-03,
                6.689743760e-06, -5.894957100e-09,
                1.663418450e-12, -1.052703670e+03,
                4.172612600e+00]  ),
       NASA(   [1000.0, 6000.0], [3.660960650e+00, 6.563658110e-04,
                -1.411496270e-07, 2.057979350e-11,
                -1.299134360e-15,
                -1.214730770e+03, 3.416709190e+00]  )
               ),
    transport = gas_transport(
                   geom = "linear",
                   diam = 3.458, 
                   well_depth = 107.4, 
                   polar = 1.6, 
                   rot_relax = 3.8) 
        )

species(name = "O",
    atoms = "O:1", 
    thermo = (
       NASA(   [200.0, 1000.0], [3.106527750e+00, -2.756904210e-03,
                5.114358810e-06, -4.294942630e-09,
                1.347565970e-12, 2.912770090e+04,
                2.301235780e+00]  ),
       NASA(   [1000.0, 6000.0], [2.543636970e+00, -2.731624860e-05,
                -4.190295200e-09, 4.954818450e-12,
                -4.795536940e-16, 2.922661550e+04,
                4.922946370e+00]  )
               ),
    transport = gas_transport(
                   geom = "atom",
                   diam = 2.7500000000000004, 
                   well_depth = 80.0, 
                   polar = 0.0, 
                   rot_relax = 0.0) 
        )

species(name = "H2O",
    atoms = "H:2  O:1", 
    thermo = (
       NASA(   [200.0, 1000.0], [4.239470850e+00, -2.381937210e-03,
                7.531457410e-06, -6.700390480e-09,
                2.278015550e-12, -3.029732530e+04,
                -1.013902610e+00]  ),
       NASA(   [1000.0, 6000.0], [2.677038900e+00, 2.973181600e-03,
                -7.737688900e-07, 9.443351400e-11,
                -4.268999100e-15,
                -2.988629310e+04, 6.882119110e+00]  )
               ),
    transport = gas_transport(
                   geom = "nonlinear",
                   diam = 2.6050000000000004, 
                   well_depth = 572.4, 
                   polar = 0.0, 
                   rot_relax = 4.0, 
                   dipole= 1.8440005262719967) 
        )

species(name = "OH",
    atoms = "H:1  O:1", 
    thermo = (
       NASA(   [200.0, 1000.0], [3.984540360e+00, -2.338079350e-03,
                4.432325390e-06, -3.658144720e-09,
                1.270948310e-12, 3.369554460e+03,
                -7.394023780e-02]  ),
       NASA(   [1000.0, 6000.0], [2.838530330e+00, 1.107412890e-03,
                -2.940002090e-07, 4.206987290e-11,
                -2.422898900e-15, 3.697880830e+03,
                5.845025070e+00]  )
               ),
    transport = gas_transport(
                   geom = "linear",
                   diam = 2.7500000000000004, 
                   well_depth = 80.0, 
                   polar = 0.0, 
                   rot_relax = 0.0) 
        )

species(name = "OHV",
    atoms = "H:1  O:1", 
    thermo = (
       NASA(   [300.0, 1000.0], [3.637259290e+00, 1.851449010e-04,
                -1.676312360e-06, 2.387367190e-09,
                -8.432082220e-13, 5.002130060e+04,
                1.358887890e+00]  ),
       NASA(   [1000.0, 5000.0], [2.882730000e+00, 1.013974300e-03,
                -2.276877000e-07, 2.174683000e-11,
                -5.126305000e-16, 5.030140630e+04,
                5.595716060e+00]  )
               ),
    transport = gas_transport(
                   geom = "linear",
                   diam = 2.7500000000000004, 
                   well_depth = 80.0, 
                   polar = 0.0, 
                   rot_relax = 0.0) 
        )

species(name = "H2O2",
    atoms = "H:2  O:2", 
    thermo = (
       NASA(   [200.0, 1000.0], [3.828191160e+00, 3.273080420e-03,
                5.582988110e-06, -8.217793020e-09,
                3.054933630e-12, -1.766382310e+04,
                5.240069800e+00]  ),
       NASA(   [1000.0, 6000.0], [4.579773050e+00, 4.053260030e-03,
                -1.298447300e-06, 1.982114000e-10,
                -1.139687920e-14,
                -1.800241800e+04, 6.701119310e-01]  )
               ),
    transport = gas_transport(
                   geom = "nonlinear",
                   diam = 3.458, 
                   well_depth = 107.4, 
                   polar = 0.0, 
                   rot_relax = 3.8) 
        )

species(name = "HO2",
    atoms = "H:1  O:2", 
    thermo = (
       NASA(   [200.0, 1000.0], [3.877615000e+00, -1.159847110e-03,
                1.065525160e-05, -1.168183220e-08,
                4.035641140e-12, 3.014059170e+02,
                5.429505420e+00]  ),
       NASA(   [1000.0, 5000.0], [4.172287410e+00, 1.881176270e-03,
                -3.462772860e-07, 1.946575490e-11,
                1.762569050e-16, 3.516659350e+01,
                2.962155150e+00]  )
               ),
    transport = gas_transport(
                   geom = "nonlinear",
                   diam = 3.458, 
                   well_depth = 107.4, 
                   polar = 0.0, 
                   rot_relax = 1.0) 
        )

species(name = "CO",
    atoms = "C:1  O:1", 
    thermo = (
       NASA(   [200.0, 1000.0], [3.625396780e+00, -9.984311890e-04,
                2.152418340e-06, -4.547367910e-10,
                -3.360716210e-13,
                -1.434812840e+04, 3.323214240e+00]  ),
       NASA(   [1000.0, 6000.0], [3.048485900e+00, 1.351728100e-03,
                -4.857940500e-07, 7.885364400e-11,
                -4.698074600e-15,
                -1.426656540e+04, 6.016613460e+00]  )
               ),